%nprocshared=8
%mem=3GB
#p b3lyp empiricaldispersion=gd3bj midix scrf=(pcm,solvent=1,4-dioxane)
opt=(ts,calcfc,maxstep=5,noeigentest) freq=noraman

Title Card Required

0 1
 C                  1.16152500    1.59494200   -0.96674800
 H                  1.58959800    1.50257500   -1.96400200
 C                  1.98203300    1.94227500    0.05609800
 H                  3.03905300    2.13299500   -0.11352900
 H                  1.62147500    2.13003200    1.06335500
 C                 -0.19674200    1.18880400   -0.83058300
 H                 -0.69781200    0.75818100   -1.68923600
 C                 -0.81625200    1.09479300    0.39240800
 H                 -0.46988300    1.69464100    1.22848400
 N                 -2.15906500    0.68832200    0.56744100
 H                 -2.61124100    0.91623300    1.45519700
 C                 -2.77019900   -0.29408600   -0.18166200
 O                 -2.30816200   -0.83861800   -1.17735500
 O                 -4.00085800   -0.57986900    0.35599300
 C                  1.56999900   -0.48442400    1.23908100
 H                  2.11388500   -0.11661200    2.10327800
 C                  0.21026200   -0.60233900    1.22217500
 H                 -0.35079200   -0.46112800    2.14396900
 H                 -0.26752000   -1.20157800    0.45329800
 C                  2.41427600   -0.95163400    0.13626800
 O                  3.63581400   -1.03128200    0.13053600
 O                  1.65416000   -1.32724800   -0.95703100
 H                 -4.36662700   -1.28189800   -0.24535700
 H                  2.33627600   -1.60554900   -1.62690700



