%nprocshared=8
%mem=3GB
#p b3lyp empiricaldispersion=gd3bj 6-31g* scrf=(pcm,solvent=1,4-dioxane)
opt=(ts,calcfc,maxstep=5,noeigentest) freq=noraman

Title Card Required

0 1
 C                 -0.54451000    2.28947900   -0.20187100
 H                 -0.56151700    3.23104700    0.34284500
 C                 -1.74658600    1.68786800   -0.52777100
 H                 -2.68837100    2.17622600   -0.29722000
 H                 -1.80033800    0.93836100   -1.30877100
 C                  0.68614200    1.63382300   -0.31959600
 H                  1.57105300    2.08633500    0.11101900
 C                  0.75563600    0.29865600   -0.72628300
 H                  0.04003100   -0.07711000   -1.44787000
 N                  1.97055200   -0.41620000   -0.79910000
 H                  2.00125800   -1.21737000   -1.41430000
 C                  2.98734500   -0.32969700    0.11131600
 O                  3.06994900    0.46118800    1.03402300
 O                  3.93194500   -1.26989000   -0.16252100
 C                 -1.67493300   -0.13008800    0.91034300
 H                 -1.95253900    0.50840200    1.73866000
 C                 -0.38551400   -0.66015900    0.82428900
 H                  0.33101900   -0.42689200    1.60372700
 H                 -0.24925100   -1.61858800    0.33598100
 C                 -2.81550400   -0.76443700    0.24301700
 O                 -3.98871500   -0.62097300    0.53872500
 O                 -2.44025900   -1.54358200   -0.81939000
 C                 -3.65608857   -2.07273346   -1.35479376
 H                 -4.28522612   -1.26819596   -1.67386329
 H                 -3.43327458   -2.70391315   -2.18957883
 H                 -4.15951125   -2.64202961   -0.60155575
 C                  4.95491311   -1.09273826    0.82086778
 H                  4.53922622   -1.23173992    1.79697379
 H                  5.73297971   -1.80924261    0.65920797
 H                  5.35797078   -0.10467816    0.74224364



