%nprocshared=8
%mem=3GB
#p b3lyp empiricaldispersion=gd3bj cc-pVDZ scrf=(pcm,solvent=1,4-dioxane)
opt=(ts,calcfc,maxstep=5,noeigentest) freq=noraman temperature=383

Title Card Required

0 1
 C                 -0.61123300    2.51305800   -0.44285000
 H                 -0.55950000    3.52097000   -0.03645300
 C                 -1.84960100    1.90860400   -0.56653000
 H                 -2.75613800    2.45485300   -0.32443300
 H                 -1.99083200    1.06165400   -1.22802500
 C                  0.59069200    1.81034300   -0.58158800
 H                  1.52088400    2.29074800   -0.30401200
 C                  0.59775200    0.43046500   -0.80247200
 H                 -0.19318300   -0.01933600   -1.39073900
 N                  1.78489200   -0.32585300   -0.88509100
 H                  1.73735400   -1.21321700   -1.36633400
 C                  2.88451800   -0.15303300   -0.08272100
 O                  3.06692100    0.76210700    0.69992500
 O                  3.75895300   -1.16600600   -0.30091200
 C                 -1.68228000    0.31428700    1.09253800
 H                 -1.86467400    1.06773800    1.84783600
 C                 -0.42036200   -0.27024500    0.96796600
 H                  0.37335200    0.04260400    1.63683800
 H                 -0.35397500   -1.28974200    0.60525000
 C                 -2.90099000   -0.36793700    0.63582800
 O                 -4.02926100   -0.14736900    1.03937900
 O                 -2.64071100   -1.27851600   -0.34759000
 C                 -3.78955600   -1.97455000   -0.84981100
 H                 -4.50878800   -1.27206700   -1.27922600
 H                 -3.41173100   -2.65095000   -1.61725400
 H                 -4.27910900   -2.53816500   -0.05131900
 C                  4.96944000   -1.09099500    0.46758000
 H                  4.74819700   -1.12025300    1.53737200
 H                  5.51404000   -0.17167700    0.23818800
 C                  5.79304069   -2.32432613    0.05263877
 H                  6.71906691   -2.33163068    0.58866310
 H                  5.24267396   -3.21348099    0.27935468
 H                  5.98962299   -2.28479122   -0.99840470



