%nprocshared=8
%mem=3GB
#p b3lyp empiricaldispersion=gd3bj midix scrf=(pcm,solvent=1,4-dioxane)
opt=(ts,calcfc,maxstep=5,noeigentest) freq=noraman

Title Card Required

0 1
 C                 -0.61219900    2.33641200   -0.15397100
 H                 -0.57591200    3.28612700    0.38037100
 C                 -1.82833100    1.83516100   -0.51323700
 H                 -2.74650700    2.36934500   -0.27842100
 H                 -1.93264500    0.98223700   -1.17647600
 C                  0.61046000    1.63656400   -0.28460800
 H                  1.50923300    2.06300100    0.14620000
 C                  0.66055200    0.32000700   -0.70878900
 H                 -0.10764500   -0.08418600   -1.36241600
 N                  1.87417000   -0.40107600   -0.82677700
 H                  1.86652700   -1.24368500   -1.40562600
 C                  2.90835900   -0.31014100    0.08067300
 O                  3.00561100    0.50502900    0.99022700
 O                  3.84174300   -1.28020400   -0.19078000
 C                 -1.61718500   -0.26157200    1.04260900
 H                 -1.94264500    0.38423700    1.84911600
 C                 -0.30326800   -0.64188900    0.88990100
 H                  0.43963300   -0.34189000    1.62498500
 H                 -0.08860400   -1.56567400    0.35866200
 C                 -2.69126900   -0.85517900    0.24824000
 O                 -3.88746000   -0.86835400    0.49533200
 O                 -2.19093800   -1.41682300   -0.92901900
 H                  4.54788700   -1.12916800    0.49239500
 H                 -3.00287800   -1.78616900   -1.37235600



