%nprocshared=8
%mem=3GB
#p b3lyp empiricaldispersion=gd3bj 6-31g* scrf=(pcm,solvent=1,4-dioxane)
opt=(ts,calcfc,maxstep=5,noeigentest) freq=noraman

Title Card Required

0 1
 C                  1.00002400    1.55615400   -1.07011200
 H                  1.43829100    1.43113800   -2.05697700
 C                  1.83957800    1.80637000    0.00155600
 H                  2.90327600    1.95427300   -0.15613600
 H                  1.45707100    2.21287200    0.93052800
 C                 -0.34123000    1.19301800   -0.91069300
 H                 -0.88837300    0.80511800   -1.76098200
 C                 -0.90372800    1.05455700    0.36005800
 H                 -0.57917100    1.71567800    1.15446800
 N                 -2.23137200    0.62609500    0.57141300
 H                 -2.66686100    0.87711400    1.44798300
 C                 -2.86295900   -0.35679100   -0.14041500
 O                 -2.44820200   -0.90735400   -1.14389000
 O                 -4.06269900   -0.64173900    0.43594600
 C                  1.69706300   -0.19510200    1.11371500
 H                  2.22338600    0.21790000    1.96679300
 C                  0.33963700   -0.50573700    1.21060100
 H                 -0.14580800   -0.39976100    2.17608800
 H                 -0.07957300   -1.25750800    0.55312700
 C                  2.58769900   -0.84813000    0.14555100
 O                  3.80672200   -0.85918400    0.20289000
 O                  1.91489500   -1.46523700   -0.86425300
 C                  2.92096435   -2.02207442   -1.71434508
 H                  2.45540802   -2.52069895   -2.53868171
 H                  3.55142299   -1.23915045   -2.08102198
 H                  3.50885490   -2.72302830   -1.15941412
 C                 -4.65463501   -1.65716901   -0.37855609
 H                 -5.60766468   -1.92801204    0.02552126
 H                 -4.78166781   -1.28668754   -1.37430011
 H                 -4.01748948   -2.51660443   -0.39634177



