%nprocshared=8
%mem=3GB
#p b3lyp empiricaldispersion=gd3bj midix scrf=(pcm,solvent=1,4-dioxane)
opt=modredundant freq=noraman

Title Card Required

0 1
 C                  0.60465400    2.40760300   -0.00617700
 H                  0.52517800    3.33287500   -0.57864800
 C                  1.81046700    2.06660300    0.48787900
 H                  2.67831900    2.70433200    0.33314900
 H                  1.97079500    1.16710200    1.07628500
 C                 -0.62068700    1.64655800    0.09064700
 H                 -1.47660400    1.99117800   -0.47849400
 C                 -0.72848600    0.47261500    0.75864500
 H                  0.06564300    0.10981200    1.40499500
 N                 -1.89556900   -0.30337500    0.86449200
 H                 -1.91988300   -1.03468500    1.57806400
 C                 -2.91804800   -0.32525400   -0.06021100
 O                 -3.00394900    0.37072200   -1.06454100
 O                 -3.84576900   -1.26719300    0.31155300
 C                  1.50103046   -0.36773783   -0.90866794
 H                  1.82108246    0.21397717   -1.76703394
 C                  0.21574046   -0.70295183   -0.70302494
 H                 -0.56823454   -0.43158483   -1.40479094
 H                 -0.05288454   -1.41098483    0.07299406
 C                  2.57914046   -0.75876983    0.00821006
 O                  3.77607146   -0.77552983   -0.22715894
 O                  2.08297646   -1.10198483    1.26394306
 H                 -4.53710300   -1.21631900   -0.40086600
 H                  2.89937146   -1.36053483    1.77352006

B 8 17 F


