%nprocshared=8
%mem=3GB
#p b3lyp empiricaldispersion=gd3bj cc-pVDZ scrf=(pcm,solvent=1,4-dioxane)
opt=(ts,calcfc,maxstep=5,noeigentest) freq=noraman temperature=383

Title Card Required

0 1
 C                  1.27056700   -1.30339900    1.48263500
 H                  1.76292100   -0.78835900    2.30395900
 C                  2.05299800   -1.96575200    0.55140000
 H                  3.12753000   -2.03639600    0.68780800
 H                  1.62772200   -2.71736700   -0.10390600
 C                 -0.08634400   -1.03713300    1.27604300
 H                 -0.59388600   -0.33670500    1.92730500
 C                 -0.72524900   -1.43265500    0.09811700
 H                 -0.42822800   -2.36188600   -0.37222000
 N                 -2.07352600   -1.13378600   -0.18501200
 H                 -2.54349600   -1.71073300   -0.86866000
 C                 -2.69695200    0.05363000    0.10551400
 O                 -2.24532600    0.95633300    0.78629700
 O                 -3.92023800    0.06829000   -0.48042300
 C                  1.79802900   -0.57989600   -1.24876200
 H                  2.31614000   -1.28671100   -1.88733100
 C                  0.42645600   -0.36885300   -1.40160100
 H                 -0.08721000   -0.88202000   -2.20917300
 H                  0.00180300    0.58072100   -1.10081300
 C                  2.68923000    0.43130500   -0.65773000
 O                  3.90511500    0.44324500   -0.76223200
 O                  2.00259700    1.36683300    0.04498100
 C                  2.80726900    2.34702500    0.70995300
 H                  2.10418000    3.00671100    1.21896900
 H                  3.47553000    1.87027600    1.43268800
 H                  3.40824200    2.90866600   -0.01004900
 C                 -4.68992600    1.25440900   -0.23163500
 H                 -4.86779900    1.37950300    0.83933700
 H                 -4.17131500    2.13660000   -0.61498000
 C                 -6.01977015    1.04259938   -0.97879710
 H                 -6.64928162    1.89585547   -0.83537693
 H                 -5.82557600    0.91414540   -2.02315729
 H                 -6.50843509    0.17063085   -0.59698895



