%nprocshared=8
%mem=3GB
#p b3lyp empiricaldispersion=gd3bj 6-31g* scrf=(pcm,solvent=1,4-dioxane)
opt=(ts,calcfc,maxstep=5,noeigentest) freq=noraman

Title Card Required

0 1
 C                 -1.10598500    2.42960400   -0.20793200
 H                 -1.16674600    3.41176500    0.25663900
 C                 -2.30092900    1.74416600   -0.44506400
 H                 -3.23376300    2.29285500   -0.34131600
 H                 -2.33853300    0.96393900   -1.20030300
 C                  0.16910300    1.84644100   -0.27903600
 H                  1.01988400    2.37173900    0.13449300
 C                  0.32251700    0.53705600   -0.69194300
 H                 -0.43817300    0.07724500   -1.30629400
 N                  1.46213700   -0.24576400   -0.61869700
 H                  1.29163400   -1.24488900   -0.72017800
 C                  2.63495700    0.09333400    0.01693300
 O                  2.95224400    1.19763000    0.41638500
 O                  3.42944300   -1.00146900    0.10962200
 C                 -1.30891100   -0.49993800    1.02701600
 H                 -0.47487100   -0.37215600    1.70450000
 C                 -2.41439400    0.35716000    1.06506300
 H                 -2.49472900    1.03791800    1.90636800
 H                 -3.36474000   -0.01704400    0.69669400
 C                 -1.23274100   -1.66550500    0.17992200
 O                 -0.28724000   -2.45312700    0.10824500
 O                 -2.31174400   -1.81059800   -0.65366700
 C                 -2.03870738   -2.98300691   -1.42555323
 H                 -1.91623493   -3.82049469   -0.77094288
 H                 -2.85407843   -3.16838505   -2.09316464
 H                 -1.14150869   -2.83739761   -1.99011718
 C                  4.63135386   -0.56557773    0.75017573
 H                  4.39842616   -0.17873180    1.72022465
 H                  5.30348988   -1.39237225    0.84786903
 H                  5.09147708    0.20052718    0.16172870



