%nprocshared=8
%mem=3GB
#p b3lyp empiricaldispersion=gd3bj midix scrf=(pcm,solvent=1,4-dioxane)
opt=(ts,calcfc,maxstep=5,noeigentest) freq=noraman

Title Card Required

0 1
 C                 -1.20495100    2.37117700   -0.21523500
 H                 -1.28433400    3.36597100    0.22371200
 C                 -2.37686500    1.64772800   -0.41162000
 H                 -3.33226000    2.15241100   -0.27334800
 H                 -2.40837100    0.81311700   -1.11136900
 C                  0.08625600    1.82795600   -0.31826400
 H                  0.93950500    2.37640200    0.06224400
 C                  0.27640400    0.52524900   -0.72877300
 H                 -0.48963600    0.02628300   -1.31175300
 N                  1.44047000   -0.23135900   -0.66593000
 H                  1.25177700   -1.25092100   -0.65404200
 C                  2.58628900    0.16440300    0.01191800
 O                  2.87426600    1.29861900    0.36636200
 O                  3.39214200   -0.92972800    0.19438000
 C                 -1.22755300   -0.53677000    1.06774400
 H                 -0.37676500   -0.38709200    1.72181500
 C                 -2.36905800    0.25243400    1.15780500
 H                 -2.45039600    0.94998500    1.98826200
 H                 -3.31398000   -0.15024800    0.79754500
 C                 -1.11847600   -1.66510700    0.17153300
 O                 -0.15372900   -2.43310300    0.04820200
 O                 -2.20642600   -1.77068300   -0.68340800
 H                  4.19345400   -0.56540900    0.65670500
 H                 -1.97457900   -2.55424200   -1.25319700



