%nprocshared=8
%mem=3GB
#p b3lyp empiricaldispersion=gd3bj midix scrf=(pcm,solvent=1,4-dioxane)
opt=(ts,calcfc,maxstep=5,noeigentest) freq=noraman

Title Card Required

0 1
 C                  2.02207000   -1.51964200    0.57776000
 H                  2.35943500   -1.77058400    1.58306300
 C                  2.95332000   -0.99402600   -0.30725000
 H                  4.00948200   -1.04948300   -0.04513000
 H                  2.75976400   -1.00017700   -1.37862500
 C                  0.63236000   -1.52016000    0.36689400
 H                 -0.01580900   -1.71639600    1.21174000
 C                  0.04574500   -1.10617400   -0.80315800
 H                  0.60206100   -1.03259800   -1.73160500
 N                 -1.31725400   -0.87948100   -0.96713900
 H                 -1.62034800   -0.57794000   -1.89639500
 C                 -2.17987600   -0.48941200    0.05178200
 O                 -1.95371200   -0.52321000    1.25983600
 O                 -3.37944800   -0.13950500   -0.49355400
 C                  1.36721600    1.33457200   -0.71389300
 H                  1.24173200    1.52727100   -1.77589600
 C                  2.61060100    1.03622300   -0.17945300
 H                  3.49847300    1.25499300   -0.77311900
 H                  2.74254300    1.11968500    0.89616900
 C                  0.15984900    1.49284500    0.06961900
 O                 -0.94459700    1.80400600   -0.39149900
 O                  0.33811800    1.21712400    1.41293300
 H                 -3.92540500    0.15110000    0.28486200
 H                 -0.58175000    0.97782300    1.71937700



