%nprocshared=8
%mem=3GB
#p b3lyp empiricaldispersion=gd3bj midix scrf=(pcm,solvent=1,4-dioxane)
opt=modredundant freq=noraman

Title Card Required

0 1
 C                  1.17388102   -2.20891558    0.02755806
 H                  1.21926102   -3.18846558    0.50538606
 C                  2.34472702   -1.61154458   -0.31828094
 H                  3.28884502   -2.13986058   -0.19889994
 H                  2.38473802   -0.70431258   -0.91558194
 C                 -0.12871998   -1.60651358   -0.02355494
 H                 -0.96453398   -2.11983158    0.43683106
 C                 -0.32718398   -0.35352358   -0.50779794
 H                  0.45825302    0.14924142   -1.06147694
 N                 -1.47853598    0.43159642   -0.44528594
 H                 -1.28986998    1.44377742   -0.49008094
 C                 -2.63409698    0.07105042    0.22773406
 O                 -2.93277098   -1.04744258    0.62261306
 O                 -3.43689098    1.17675742    0.36030606
 C                  1.42347800    0.62091800    1.14719800
 H                  0.59633700    0.49160900    1.83670200
 C                  2.52748700   -0.16279300    1.19093000
 H                  2.64827200   -0.90260300    1.97682900
 H                  3.41281200    0.08195900    0.61232200
 C                  1.21949400    1.66930700    0.15345700
 O                  0.25031900    2.42609400    0.07138200
 O                  2.21955400    1.69331500   -0.80342000
 H                 -4.24333398    0.83245542    0.82858906
 H                  1.94332200    2.43109300   -1.41382400

B 3 17 F


