%nprocshared=8
%mem=3GB
#p b3lyp empiricaldispersion=gd3bj midix scrf=(pcm,solvent=1,4-dioxane)
opt=modredundant freq=noraman

Title Card Required

0 1
 C                  1.98962900   -1.57991400    0.55138600
 H                  2.32500400   -1.85398100    1.55169000
 C                  2.92366100   -1.11441100   -0.33043100
 H                  3.98208600   -1.19171100   -0.08733400
 H                  2.69937700   -0.98254400   -1.38535200
 C                  0.57566100   -1.54180500    0.36348900
 H                 -0.04954700   -1.69147100    1.23529300
 C                 -0.03163500   -1.18078200   -0.79703700
 H                  0.51423100   -1.09655800   -1.73262000
 N                 -1.39710300   -0.92144900   -0.94045400
 H                 -1.71863600   -0.67891300   -1.88045300
 C                 -2.21766100   -0.44807200    0.06937100
 O                 -1.96121000   -0.41442500    1.27453100
 O                 -3.41909900   -0.08306700   -0.46085400
 C                  1.29101778    1.18957634   -0.45384428
 H                  1.09278813    1.43615260   -1.49374671
 C                  2.54533776    0.88875078   -0.01434207
 H                  3.40971133    1.08679474   -0.64564447
 H                  2.73599671    0.81087425    1.05097776
 C                  0.10428015    1.16570305    0.39387287
 O                 -1.04097143    1.39284252   -0.00574190
 O                  0.37449572    0.83084928    1.70247225
 H                 -3.93218500    0.26604900    0.31604300
 H                 -0.49705680    0.46298407    2.03368850

B 3 17 F


