%nprocshared=8
%mem=3GB
#p b3lyp empiricaldispersion=gd3bj cc-pVDZ scrf=(pcm,solvent=1,4-dioxane)
opt=(ts,calcfc,maxstep=5,noeigentest) freq=noraman temperature=383

Title Card Required

0 1
 C                  2.37341400   -1.24451600    1.18382500
 H                  2.69350100   -0.96526300    2.18528600
 C                  3.32141100   -1.20262200    0.15630800
 H                  4.36917300   -1.10630400    0.43082900
 H                  3.16556500   -1.80220200   -0.73649200
 C                  0.99312100   -1.35698600    0.97421100
 H                  0.31658000   -1.16702200    1.79610300
 C                  0.46428900   -1.50938500   -0.29487000
 H                  1.07392400   -1.88275700   -1.10512300
 N                 -0.87330300   -1.44462200   -0.63496000
 H                 -1.08998000   -1.52540500   -1.61940200
 C                 -1.87294700   -0.84126200    0.10658400
 O                 -1.80201100   -0.52296500    1.27904800
 O                 -2.96930300   -0.71228400   -0.66686100
 C                  1.64930200    0.59132700   -1.31441300
 H                  1.42395800    0.21019600   -2.30484900
 C                  2.95564800    0.55182500   -0.81667700
 H                  3.76043300    0.38965800   -1.52969000
 H                  3.20445100    1.22404600   -0.00344600
 C                  0.55152100    1.29470800   -0.68215200
 O                 -0.57831100    1.40142000   -1.15594300
 O                  0.89201500    1.83766100    0.52093400
 C                 -0.18486200    2.45132700    1.23895100
 H                  0.26835000    2.88103200    2.13370900
 H                 -0.65541100    3.23409300    0.63776000
 H                 -0.93377600    1.70268000    1.50993200
 C                 -4.05690900   -0.00405300   -0.05380800
 H                 -4.35330100   -0.48580400    0.88069900
 H                 -3.76403200    1.03026000    0.14347100
 C                 -5.20507888   -0.05160194   -1.07901287
 H                 -5.45929725   -1.07079066   -1.28279551
 H                 -6.05898850    0.45646012   -0.68200996
 H                 -4.89470492    0.42648752   -1.98455054



