%nprocshared=8
%mem=3GB
#p b3lyp empiricaldispersion=gd3bj 6-31g* scrf=(pcm,solvent=1,4-dioxane)
opt=(ts,calcfc,maxstep=5,noeigentest) freq=noraman

Title Card Required

0 1
 C                  1.96947300   -1.57535000    0.67028400
 H                  2.31808200   -1.76975600    1.68217900
 C                  2.90603600   -1.13672900   -0.27148700
 H                  3.96053000   -1.22127500   -0.01991500
 H                  2.70435600   -1.27576000   -1.33016200
 C                  0.58235100   -1.52496600    0.48367600
 H                 -0.06736600   -1.66645500    1.33655400
 C                  0.02209500   -1.10574800   -0.70820300
 H                  0.58949800   -1.12908100   -1.62778200
 N                 -1.31841100   -0.84674600   -0.92376400
 H                 -1.57786200   -0.55350200   -1.85579700
 C                 -2.24920500   -0.53233000    0.04677000
 O                 -2.10388200   -0.63269100    1.24945400
 O                 -3.40049100   -0.14472500   -0.55114800
 C                  1.34115100    1.18355000   -0.80754100
 H                  1.13230300    1.26532600   -1.86890900
 C                  2.63005000    0.87543400   -0.35896300
 H                  3.45085200    1.01106400   -1.05925800
 H                  2.87657200    1.11220100    0.67011400
 C                  0.25042500    1.59027100    0.04837300
 O                 -0.86237200    1.93959900   -0.34207000
 O                  0.54658600    1.54948200    1.38352100
 C                 -0.69085994    1.81924498    2.04749049
 H                 -0.54796115    1.75954742    3.10622376
 H                 -1.02829763    2.80090738    1.78792406
 H                 -1.42224175    1.09913063    1.74513976
 C                 -4.30340537    0.19017824    0.50596385
 H                 -5.22980183    0.52764331    0.09026333
 H                 -4.47836832   -0.67364887    1.11266863
 H                 -3.87765289    0.96713215    1.10594506



