%nprocshared=8
%mem=3GB
#p b3lyp empiricaldispersion=gd3bj cc-pVTZ scrf=(pcm,solvent=1,4-dioxane)

Title Card Required

0 1
 C                 -0.29918900    2.99053300   -0.48234500
 H                 -0.02182400    4.02699800   -0.26716600
 C                 -1.64514300    2.62724900   -0.34229300
 H                 -2.37957900    3.42701700   -0.21442500
 H                 -2.03201800    1.75655500   -0.87763600
 C                  0.75410400    2.07365800   -0.62647400
 H                  1.78233400    2.40748800   -0.50377700
 C                  0.49699600    0.71589100   -0.73528500
 H                 -0.47583500    0.38388000   -1.08830300
 N                  1.40512600   -0.32386200   -0.67562500
 H                  0.98823100   -1.24296400   -0.51870100
 C                  2.73319100   -0.21521200   -0.30943800
 O                  3.37429900    0.81259300   -0.21729000
 O                  3.22701600   -1.45449100   -0.09541100
 C                 -0.90131400    0.50342100    1.41055900
 H                  0.06760700    0.50380800    1.90620900
 C                 -1.73652300    1.62952200    1.43517700
 H                 -1.46249400    2.44718100    2.10445700
 H                 -2.81011600    1.46632500    1.32562600
 C                 -1.29099300   -0.77068200    0.84296800
 O                 -0.59834000   -1.78817300    0.81918200
 O                 -2.51229900   -0.72341600    0.23045400
 C                 -2.94927000   -1.94323000   -0.40150000
 H                 -2.99902300   -2.74202100    0.35536800
 H                 -2.20120200   -2.24916400   -1.15073200
 C                  4.61350000   -1.49579400    0.27488900
 H                  4.78035400   -0.94850600    1.21429900
 H                  4.84966200   -2.55848100    0.40268600
 H                  5.23929200   -1.05276500   -0.51376200
 C                 -4.30016200   -1.66900100   -1.02808900
 H                 -4.67729900   -2.57842300   -1.52127900
 H                 -5.03118400   -1.35995200   -0.26489100
 H                 -4.22938200   -0.87018400   -1.78309300



