%nprocshared=8
%mem=3GB
#p b3lyp empiricaldispersion=gd3bj 6-31g* scrf=(pcm,solvent=1,4-dioxane)
opt=(ts,calcfc,maxstep=5,noeigentest) freq=noraman

Title Card Required

0 1
 C                 -1.21598400    2.37053800   -0.22392000
 H                 -1.29845600    3.37102100    0.20101500
 C                 -2.38911000    1.62785500   -0.39071700
 H                 -3.34474300    2.13045100   -0.24475000
 H                 -2.42619900    0.80560900   -1.10591300
 C                  0.06978900    1.83315400   -0.33572000
 H                  0.92822100    2.38669400    0.02518900
 C                  0.25561300    0.51816200   -0.72807300
 H                 -0.50280400    0.02423400   -1.32558400
 N                  1.42708300   -0.22824200   -0.67167700
 H                  1.24498900   -1.24984200   -0.65647800
 C                  2.56827800    0.17382900    0.01117600
 O                  2.85019400    1.30917300    0.36690000
 O                  3.37894800   -0.91623800    0.19600600
 C                 -1.18003000   -0.52362500    1.04627400
 H                 -0.32581400   -0.37807500    1.69647800
 C                 -2.33291500    0.26010100    1.16076800
 H                 -2.39885000    0.94875900    2.00048800
 H                 -3.28277800   -0.17011800    0.84650200
 C                 -1.09563500   -1.66966100    0.17161200
 O                 -0.13358900   -2.44037300    0.03765700
 O                 -2.20272600   -1.78818300   -0.65612900
 H                  4.17751000   -0.54798100    0.66000800
 H                 -1.98331600   -2.58020900   -1.21909400



