%nprocshared=8
%mem=3GB
#p b3lyp empiricaldispersion=gd3bj 6-31g* scrf=(pcm,solvent=1,4-dioxane)
opt=(ts,calcfc,maxstep=5,noeigentest) freq=noraman

Title Card Required

0 1
 C                  2.02437700   -1.48468300    0.64672500
 H                  2.36742200   -1.68925600    1.66042600
 C                  2.95689100   -0.99894200   -0.27911000
 H                  4.01289800   -1.03512100   -0.01183500
 H                  2.77225300   -1.12792100   -1.34571600
 C                  0.64754600   -1.48017700    0.43453200
 H                 -0.01817200   -1.64354900    1.27189300
 C                  0.08312100   -1.07329400   -0.76328500
 H                  0.64500100   -1.09174500   -1.68996300
 N                 -1.27412100   -0.86147700   -0.96341300
 H                 -1.55279800   -0.53431900   -1.89165200
 C                 -2.18012500   -0.52782000    0.04234400
 O                 -1.99933400   -0.62308500    1.24965600
 O                 -3.36092100   -0.15965300   -0.53815900
 C                  1.27119900    1.21939800   -0.78776100
 H                  1.06967900    1.35312800   -1.84657600
 C                  2.57305300    0.99258100   -0.32472100
 H                  3.39819100    1.20841000   -1.00474900
 H                  2.77943100    1.21056300    0.72066700
 C                  0.14676600    1.50525400    0.07384000
 O                 -0.98702200    1.81600100   -0.30938300
 O                  0.43700100    1.34723400    1.41715500
 H                 -3.94609400    0.07439100    0.23033100
 H                 -0.46372700    1.34788200    1.84152000



