%mem=1GB
#p opt freq=noraman pddg

pentane conformation 4

0 1
 C                  1.26963808    1.41036764    1.23992509
 H                  0.39266926    2.06679120    1.29092856
 H                  2.15840362    2.04922976    1.26343630
 H                  1.27363540    0.80934012    2.15715923
 C                  1.24631000    0.53986500   -0.00000400
 H                  1.27460417    1.16978014   -0.91347083
 H                  2.15819296   -0.09139372   -0.04467416
 C                  0.00000000   -0.33329100    0.00002700
 H                  0.00000100   -1.00756200    0.88375200
 H                 -0.00000100   -1.00759500   -0.88366900
 C                 -1.24631000    0.53986500    0.00000800
 H                 -2.13242826   -0.05462694   -0.30558625
 H                 -1.15168423    1.34525066   -0.75789552
 C                 -1.46206440    1.13569149    1.37630159
 H                 -0.61178570    1.75401566    1.68818340
 H                 -2.35447706    1.76934759    1.40240470
 H                 -1.58963388    0.35827363    2.13913489


