%mem=1GB
#p opt freq=noraman pddg

pentane conformation 3

0 1
 C                  1.26963808    1.41036764    1.23992509
 H                  0.39266926    2.06679120    1.29092856
 H                  2.15840362    2.04922976    1.26343630
 H                  1.27363540    0.80934012    2.15715923
 C                  1.24631000    0.53986500   -0.00000400
 H                  1.27460417    1.16978014   -0.91347083
 H                  2.15819296   -0.09139372   -0.04467416
 C                  0.00000000   -0.33329100    0.00002700
 H                  0.00000100   -1.00756200    0.88375200
 H                 -0.00000100   -1.00759500   -0.88366900
 C                 -1.24631000    0.53986500    0.00000800
 H                 -1.29838365    1.13588393    0.93492182
 H                 -2.15874601   -0.09217495   -0.00196014
 C                 -1.23813933    1.45525748   -1.20735816
 H                 -1.21826361    0.88826850   -2.14581294
 H                 -2.12630275    2.09497771   -1.23028277
 H                 -0.36045265    2.11268773   -1.21168338


