%chk=g09.chk
%nprocshared=8
%mem=3GB
#p b3lyp/6-31g* empiricaldispersion=gd3bj opt freq=noraman pop=(chelpg,npa)

Title Card Required

0 1
 C                  0.00000000    0.66535700    0.00000000
 H                 -0.92371600    1.23919200    0.00000000
 C                  0.00000000   -0.66535700    0.00000000
 H                 -0.92375400   -1.23914900    0.00000000
 H                  0.92371600   -1.23919200    0.00000000
 C                  1.30817455    1.47793274    0.00000000
 H                  2.25057829    0.97120285    0.00000000
 O                  1.27260687    2.73583000   -0.00000000



