%chk=g09.chk
%nprocshared=8
%mem=3GB
#p b3lyp/6-31g* empiricaldispersion=gd3bj opt=(ts,noeigentest,calcfc,maxstep=5) freq=noraman pop=(chelpg,npa)

Title Card Required

0 1
 C                 -1.44101200   -1.09025900   -0.21554600
 H                 -1.68620000   -1.69320000    0.65346500
 C                 -1.68975800    0.26145500   -0.23805400
 H                 -1.70825100    0.77795200   -1.19236700
 H                 -2.32188600    0.69843800    0.52969300
 C                  0.99649100    1.07500100   -0.26109000
 H                  1.29918900    1.77442700   -1.03781900
 C                 -0.09026100    1.38338400    0.53192300
 H                 -0.50460900    2.38857100    0.50461100
 H                 -0.22916700    0.87133400    1.47709600
 C                  1.52380600   -0.24062400   -0.31895500
 H                  2.21996500   -0.46625600   -1.12570600
 C                  1.06276000   -1.27474100    0.44547300
 H                  0.51508900   -1.11207900    1.36433500
 H                  1.40697200   -2.29064500    0.27541800
 C                 -1.04639160   -1.86255711   -1.48811442
 H                 -0.96013973   -1.34503188   -2.42065302
 O                 -0.82502085   -3.10019432   -1.43501375



