%chk=g09.chk
%nprocshared=8
%mem=3GB
#p b3lyp/6-31g* empiricaldispersion=gd3bj opt=(ts,calcfc,noeigentest,maxstep=5) freq=noraman pop=(chelpg,npa)

Title Card Required

0 1
 C                 -0.83768700    0.84057100    0.42183600
 H                 -1.16112300    0.94088900    1.45464900
 C                  0.19193700    1.63804700   -0.07524500
 H                  0.27672300    1.75712800   -1.15174000
 H                  0.51042600    2.50189800    0.50054200
 C                  1.96739900   -0.45703100   -0.54541900
 H                  2.46040000   -0.49904800   -1.51454200
 C                  2.07945400    0.70666600    0.20557500
 H                  2.77997000    1.47547200   -0.11029200
 H                  1.90351200    0.68019200    1.27599000
 C                  1.01194500   -1.44725000   -0.25008200
 H                  0.81155200   -2.20512500   -1.00435100
 C                  0.16791700   -1.35391600    0.83236300
 H                  0.44346300   -0.79541000    1.71819600
 H                 -0.66914900   -2.03386600    0.95119000
 C                 -1.76411800    0.14705400   -0.47519200
 H                 -1.39052700    0.05897200   -1.52240000
 O                 -2.85829100   -0.29074300   -0.16003300
 B                 -3.57656251   -1.54539273   -1.82939259
 F                 -4.22131435   -0.41595519   -2.49291796
 F                 -2.17073042   -1.84012531   -2.09086693
 F                 -4.33764277   -2.38009770   -0.90439288



