%chk=g09.chk
%nprocshared=8
%mem=3GB
#p b3lyp/6-31g* empiricaldispersion=gd3bj opt freq=noraman pop=(chelpg,npa)

Title Card Required

0 1
 C                 -1.45007928    1.06973057    0.00000000
 H                 -2.52007928    1.06973057    0.00000000
 C                 -0.77480498    2.24470787    0.00000000
 H                 -1.30796872    3.17241279    0.00000000
 H                  0.29519502    2.24470787   -0.00000000
 C                 -0.68272212   -0.26547090    0.00000000
 H                 -1.22138832   -1.18999171   -0.00000000
 C                  0.67245397   -0.27352269   -0.00000000
 H                  1.21660361    0.64778137    0.00000000
 H                  1.20009644   -1.20437897   -0.00000000



