%nprocshared=8
%mem=3GB
#p b3lyp cc-pVTZ empiricaldispersion=gd3bj scrf=(pcm,solvent=diethylether)

title

0 1
16     -2.27080300      1.19153600     -0.70783000
 8     -0.51497100     -3.00829500      1.43334400
 7      0.45496400     -2.24869500     -0.46851300
 7     -1.93777300     -0.59223100      1.27962200
 1     -2.31502800     -1.33807700      1.85452500
 7     -4.09571800     -0.25406100      0.67111200
 1     -4.26541600     -1.06391000      1.25677000
 6      0.79119700     -1.20103700     -1.47523700
 1     -0.11587900     -0.61830900     -1.66522400
 6      1.11981900     -2.02112000     -2.74429900
 1      2.19332800     -2.22165300     -2.80116900
 1      0.84015800     -1.46335500     -3.64141500
 6      0.33380900     -3.32505000     -2.56501400
 1      0.72856300     -4.14814500     -3.16675800
 1     -0.71640200     -3.17521500     -2.83956600
 6      0.43885600     -3.59757900     -1.06234000
 1      1.35631600     -4.14491300     -0.81033800
 1     -0.39999600     -4.15882800     -0.64885700
 6     -0.14663700     -2.05649700      0.73261500
 6     -0.48054100     -0.62317300      1.18028800
 1     -0.20933900      0.10196100      0.42043900
 6     -2.78542200      0.07372800      0.45791700
 6      0.18632300     -0.18266100      2.52169400
 6     -0.08573600      1.32175900      2.69383700
 1     -1.16075100      1.52906200      2.71599600
 1      0.34973100      1.67990600      3.63364700
 1      0.35420900      1.89795100      1.87214800
 6     -0.37826900     -0.94574100      3.73229100
 1     -0.23236300     -2.02310300      3.62902800
 1      0.12870400     -0.60807100      4.64323800
 1     -1.44871300     -0.75138000      3.86658600
 6      1.70248300     -0.41414000      2.43892800
 1      2.15320100      0.17853900      1.64076500
 1      2.17280100     -0.11696300      3.38288300
 1      1.94610700     -1.46703800      2.26074000
 6      3.00114700      4.50930700     -0.59202000
 6      2.11254900      3.50319300     -0.91452100
 6      2.49759400      2.14508900     -0.83537400
 6      3.81142600      1.80116400     -0.41463900
 6      4.30586800      4.17669000     -0.18118200
 6      1.56878700      1.10931700     -1.16287500
 6      4.16683600      0.39236000     -0.31907000
 6      3.19977700     -0.61350600     -0.63735500
 6      1.87471400     -0.21739900     -1.07305000
 6      3.56719100     -1.97142500     -0.48247300
 1      2.84212300     -2.74418400     -0.68617300
 6      4.82791300     -2.33951100     -0.05505600
 6      5.78194300     -1.35227600      0.23955700
 1      0.56751200      1.40507300     -1.46404900
 1      2.69767300      5.55019000     -0.65303400
 1      1.09981900      3.73801900     -1.23094000
 1      5.00992700      4.96367300      0.07309400
 1      5.07557500     -3.39109900      0.05556900
 1      6.77587100     -1.63361700      0.57471100
 6      4.69996100      2.85343200     -0.09445900
 6      5.44987600     -0.01758100      0.11047200
 6     -5.26411100      0.27414400      0.06572300
 6     -6.27618000     -0.62588200     -0.28666700
 6     -5.45930400      1.64828500     -0.11153900
 6     -7.47414900     -0.15658900     -0.82339900
 1     -6.11850200     -1.69188100     -0.14470400
 6     -6.65390500      2.10612300     -0.66450800
 1     -4.68338600      2.34291800      0.18119400
 6     -7.66495500      1.21138100     -1.02231300
 1     -8.25285000     -0.86395300     -1.09302200
 1     -6.79796600      3.17361400     -0.80375000
 1     -8.59436200      1.57792500     -1.44767800
 1      5.71067100      2.63470100      0.22975600
 1      6.19780400      0.72805500      0.35295800


