%nprocshared=8
%mem=20GB
#p b3lyp 6-31g* empiricaldispersion=gd3bj opt freq=noraman scrf=(pcm,solvent=diethylether)

title

0 1
16     -3.21569900     -0.24446700      1.15315600
 8      0.58418100     -1.82187600     -1.30957900
 7      0.28422800     -2.47466700      0.85608000
 7     -2.00055900     -0.89744700     -1.16079900
 1     -1.26028500     -0.60452000     -1.81705800
 7     -2.41982800      1.32175200     -0.93681200
 1     -1.93002500      1.33071800     -1.83891400
 6      1.70264800     -2.22878800      1.22503400
 1      2.30477700     -3.07349700      0.86181200
 6      1.65577700     -2.26171500      2.78022800
 1      1.42400300     -1.26043000      3.16343700
 1      2.61792300     -2.58025400      3.19383300
 6      0.50182500     -3.24226700      3.09020000
 1      0.09488500     -3.11189200      4.09861700
 1      0.84800300     -4.27908100      2.98340000
 6     -0.54780900     -2.92091500      2.00156100
 1     -1.23452800     -2.12042300      2.31290800
 1     -1.13874600     -3.80138600      1.73085300
 6     -0.16589600     -2.19565100     -0.38866800
 6     -1.68707700     -2.22750700     -0.62118900
 1     -2.23971700     -2.30580800      0.31507300
 6     -2.52011100      0.09049900     -0.35563000
 6     -2.14491600     -3.35252500     -1.58935100
 6     -3.68610300     -3.33075000     -1.64277300
 1     -4.03757600     -2.34347000     -1.97180900
 1     -4.05233600     -4.09069700     -2.34863600
 1     -4.11339600     -3.53897700     -0.65068700
 6     -1.57444200     -3.14117300     -3.00643400
 1     -0.48231900     -3.06539100     -2.97280800
 1     -1.86860000     -3.98128700     -3.65219000
 1     -1.97569300     -2.21572900     -3.44395300
 6     -1.66117800     -4.70610500     -1.02828200
 1     -2.07246000     -4.88138800     -0.02319900
 1     -1.99630100     -5.52400900     -1.68182800
 1     -0.56333700     -4.73938700     -0.97097100
 6      6.30344300      1.01472300     -1.34264300
 6      5.60159100     -0.07379600     -0.86658500
 6      4.30159500      0.07603700     -0.33325300
 6      3.70328500      1.36347200     -0.28323000
 6      5.71658600      2.29324500     -1.29589100
 6      3.57679200     -1.05374000      0.15113800
 6      2.36744400      1.49182000      0.27231400
 6      1.68338500      0.33486800      0.75767500
 6      2.32302500     -0.95829000      0.67259700
 6      0.38848000      0.50068300      1.30284000
 1     -0.16501700     -0.35925300      1.65028800
 6     -0.21901400      1.73720200      1.36781400
 6      0.44873400      2.87349000      0.88563400
 1      4.05642400     -2.02982300      0.08095400
 1      7.30302900      0.88900700     -1.75189700
 1      6.03969700     -1.07016700     -0.89650900
 1      6.26504100      3.15512000     -1.66875900
 1     -1.22528300      1.80999200      1.76738000
 1     -0.03649600      3.84509600      0.92200400
 6      4.44592500      2.45976900     -0.77731300
 6      1.71529000      2.74430800      0.35027300
 6     -2.75463000      2.61727200     -0.48307300
 6     -2.21167000      3.68849900     -1.21185900
 6     -3.57845600      2.88179800      0.61887400
 6     -2.47921300      5.00074800     -0.83867000
 1     -1.56422900      3.48389600     -2.06239200
 6     -3.83411600      4.20206600      0.98618100
 1     -3.97574400      2.04151400      1.16970300
 6     -3.29037500      5.26710800      0.26791300
 1     -2.04784400      5.81802500     -1.41158800
 1     -4.47048300      4.39416500      1.84695100
 1     -3.49572200      6.29282300      0.56320300
 1      4.01976500      3.45764300     -0.75243100
 1      2.21853200      3.63157300     -0.02051600


