%nprocshared=8
%mem=20GB
#p b3lyp 6-31g* empiricaldispersion=gd3bj opt freq=noraman scrf=(pcm,solvent=diethylether)

title

0 1
16     -2.34143000      1.13861200     -0.83217600
 8     -1.22938600     -2.90088600      1.37713700
 7      0.00223200     -2.25081300     -0.43754400
 7     -2.21243000     -0.32714700      1.42674000
 1     -2.62905200     -1.13295000      1.91506400
 7     -4.32929800      0.09910200      0.73232400
 1     -4.53204900     -0.45625100      1.57166300
 6      0.32922800     -1.18766100     -1.44315000
 1     -0.55096600     -0.53934200     -1.53515300
 6      0.50541100     -1.98799000     -2.76562200
 1      1.55174500     -2.28774800     -2.89771700
 1      0.20979000     -1.37470300     -3.62342900
 6     -0.39837400     -3.22873800     -2.56680600
 1     -0.12806800     -4.05850000     -3.22916100
 1     -1.44850600     -2.96103200     -2.74600700
 6     -0.19561200     -3.57648000     -1.07649200
 1      0.68903200     -4.21272200     -0.93063200
 1     -1.05059700     -4.06231500     -0.59918700
 6     -0.66225000     -2.00218900      0.72726700
 6     -0.77367500     -0.54871800      1.22523700
 1     -0.44847700      0.16916500      0.47804700
 6     -2.99970100      0.27040900      0.47167600
 6      0.00305000     -0.27954400      2.55004200
 6     -0.06251500      1.23898600      2.81804500
 1     -1.10875400      1.56931300      2.87663500
 1      0.43793400      1.47800400      3.76795000
 1      0.43820600      1.79315600      2.01016500
 6     -0.62092700     -1.04801100      3.73340000
 1     -0.66943600     -2.11899100      3.50708600
 1     -0.01293700     -0.88880100      4.63555000
 1     -1.63746400     -0.68325300      3.94008300
 6      1.47583000     -0.70339600      2.38155200
 1      1.96686200     -0.12187900      1.59448900
 1      2.01484600     -0.53202100      3.32463800
 1      1.56148800     -1.76868500      2.12525400
 6      3.14627900      4.23835300     -0.42389900
 6      2.11712200      3.35599600     -0.74427300
 6      2.34368100      1.97185300     -0.75972500
 6      3.63523000      1.47148700     -0.43648600
 6      4.41656800      3.75753400     -0.11326000
 6      1.31020000      1.03771300     -1.08204900
 6      3.86550100      0.06613900     -0.42574800
 6      2.80906900     -0.84718100     -0.73593000
 6      1.50932300     -0.31251600     -1.07803200
 6      3.07639200     -2.22241700     -0.65533500
 1      2.28344900     -2.93225200     -0.83936000
 6      4.34114900     -2.69469400     -0.31239200
 6      5.37660100     -1.81055900     -0.03252300
 1      0.31764600      1.42894100     -1.29670300
 1      2.95715800      5.30912300     -0.41610900
 1      1.12481300      3.73084300     -0.98733800
 1      5.21815500      4.45032800      0.13609300
 1      4.51446300     -3.76692900     -0.25878000
 1      6.36353900     -2.18340200      0.23487000
 6      4.68341500      2.38059400     -0.11099000
 6      5.15881700     -0.42722300     -0.07758200
 6      5.97692600      1.85172000      0.21502200
 1      6.77474100      2.55209400      0.45569000
 6      6.20148300      0.51097800      0.23071700
 1      7.18358600      0.11644400      0.48543500
 6     -5.49976200      0.55911900      0.08500100
 6     -6.71470400      0.04143600      0.56618500
 6     -5.51710000      1.48901700     -0.96262600
 6     -7.92237500      0.44284200      0.00720700
 1     -6.70542300     -0.68015900      1.38156100
 6     -6.73482600      1.88084700     -1.51635500
 1     -4.57183200      1.87220300     -1.31827400
 6     -7.94090300      1.36580700     -1.04155300
 1     -8.85244000      0.03114400      0.39176600
 1     -6.73344900      2.60274600     -2.32986200
 1     -8.88487000      1.67866300     -1.48038500


