%nprocshared=8
%mem=20GB
#p b3lyp 6-31g* empiricaldispersion=gd3bj opt freq=noraman scrf=(pcm,solvent=diethylether)

title

0 1
16     -0.83036200      1.23655700      2.19833900
 8     -2.54755600     -0.17284900     -1.99735800
 7     -2.77277200     -1.30137300     -0.03079000
 7     -1.66778600      1.81502100     -0.29290700
 1     -1.43968100      1.73293300     -1.29463200
 7      0.59960000      1.76513400     -0.06599400
 1      0.53957600      1.89933200     -1.08164600
 6     -2.03440700     -2.47762500     -0.55252100
 1     -2.40612900     -2.68393300     -1.56021100
 6     -2.42189600     -3.63425500      0.41511800
 1     -1.53237200     -4.11792900      0.82763700
 1     -2.98522000     -4.39645200     -0.13462500
 6     -3.32297600     -2.99677700      1.52756800
 1     -3.03035200     -3.31992100      2.53363100
 1     -4.36578000     -3.29677400      1.37108400
 6     -3.19920200     -1.45524700      1.36973100
 1     -2.45972600     -1.00676200      2.04514000
 1     -4.16254000     -0.95792100      1.52546700
 6     -2.81658900     -0.17474800     -0.77862400
 6     -2.96737700      1.16394400     -0.03675700
 1     -3.01549900      1.02336600      1.04352200
 6     -0.60265400      1.60432800      0.56552300
 6     -4.15313600      2.04295700     -0.49637200
 6     -4.22004300      3.27202500      0.43288000
 1     -3.26776700      3.81884600      0.39813800
 1     -5.03002700      3.94550900      0.11647400
 1     -4.40585100      2.96479600      1.47290800
 6     -3.99162200      2.50811900     -1.95841400
 1     -3.84366700      1.64593800     -2.61697800
 1     -4.88628700      3.06661700     -2.26996200
 1     -3.12322600      3.17652900     -2.05259400
 6     -5.44162700      1.20489100     -0.35516500
 1     -5.56152900      0.84579900      0.67833300
 1     -6.31958500      1.81472900     -0.61148500
 1     -5.41672600      0.33544200     -1.02880100
 6      2.88043800     -0.47492500     -3.75198600
 6      1.58494700     -0.92813800     -3.51331800
 6      1.18616000     -1.30227200     -2.22124900
 6      2.11223200     -1.20350300     -1.14812900
 6      3.80276600     -0.39999700     -2.70996300
 6     -0.13116200     -1.78101100     -1.94322400
 6      1.69733200     -1.53408800      0.17281700
 6      0.35381200     -1.96208700      0.43397600
 6     -0.55693200     -2.10599000     -0.68712300
 6      0.00115700     -2.20555900      1.77093900
 1     -1.00526400     -2.49707400      2.02132500
 6      0.91991700     -2.07567000      2.80865000
 6      2.22792300     -1.69121400      2.55184400
 1     -0.82738700     -1.85424300     -2.77368900
 1      3.17605700     -0.18581100     -4.75794400
 1      0.86721600     -0.99957600     -4.32853000
 1      4.81710300     -0.05331300     -2.89904800
 1      0.59972600     -2.27056600      3.82930600
 1      2.94613800     -1.58819900      3.36286600
 6      3.44229300     -0.76005100     -1.40385600
 6      2.63423100     -1.41194200      1.24161500
 6      4.36567200     -0.68205900     -0.31001000
 1      5.37957500     -0.34522600     -0.51297300
 6      3.97606300     -0.99221900      0.95236300
 1      4.67243000     -0.90767200      1.78356200
 6      1.90728200      1.98303700      0.42749400
 6      2.87592900      2.33904600     -0.52538900
 6      2.27377100      1.88093600      1.77494700
 6      4.18185400      2.60741800     -0.13433300
 1      2.60058300      2.39150300     -1.57689000
 6      3.58653300      2.15433000      2.15396400
 1      1.51378700      1.58719900      2.48367200
 6      4.54616300      2.52140400      1.21119100
 1      4.91872000      2.87884700     -0.88644500
 1      3.85735300      2.07148500      3.20415900
 1      5.56818500      2.73055300      1.51737500


