%nprocshared=8
%mem=6GB
#p b3lyp midix empiricaldispersion=gd3bj opt freq=noraman scrf=(pcm,solvent=diethylether)

title

0 1
16      1.51522400     -0.61955300      0.98834800
 8     -0.82970900      0.75894400     -2.81279900
 7     -1.83313400     -0.73642900     -1.46713500
 7      0.97040400      1.38422900     -0.67620000
 1      1.19426500      1.94685800     -1.47108200
 7      3.21911400      0.83953400     -0.48250400
 1      3.38826400      1.31351200     -1.34325300
 6     -2.30120700     -0.70210300      2.04682500
 1     -1.22038600     -0.74865600      2.28510700
 6     -3.19811400     -0.23959100      3.00510200
 1     -2.82772000      0.07342500      3.99279400
 6     -4.55811000     -0.17244700      2.71744800
 6     -5.02390100     -0.57769000      1.47013500
 1     -6.09942800     -0.53184200      1.24296200
 6     -4.13312900     -1.04358000      0.50762000
 1     -4.51042100     -1.37498500     -0.47522700
 6     -2.76833900     -1.09653700      0.79102300
 6     -1.78565000     -1.59173400     -0.23904000
 1     -0.72984300     -1.59697900      0.20269100
 6     -2.15565200     -3.01119300     -0.70775700
 1     -2.85550400     -3.52362000     -0.01428500
 1     -1.25598600     -3.66226900     -0.72752700
 6     -2.76101600     -2.86814800     -2.10207900
 1     -3.87176200     -2.87480700     -2.06375200
 1     -2.49507500     -3.72118600     -2.75846200
 6     -2.23171700     -1.54624700     -2.65430500
 1     -2.99616000     -0.99349000     -3.24408200
 1     -1.38174200     -1.71326600     -3.35838500
 6     -1.03736400      0.40445900     -1.65078000
 6     -0.48408300      1.19300600     -0.44800700
 1     -0.64586300      0.61928800      0.52880700
 6      1.90951800      0.53504800     -0.10222500
 6     -1.19995400      2.55690600     -0.24813400
 6     -0.72751900      3.16832600      1.07443400
 1      0.33265300      3.44995300      1.05669700
 1     -1.28829000      4.08531700      1.30305000
 1     -0.87460000      2.48696700      1.92354300
 6     -0.95421400      3.57464700     -1.35588900
 1     -1.24110500      3.20195000     -2.34641500
 1     -1.55234000      4.48049200     -1.17964200
 1      0.08838200      3.91347300     -1.41465500
 6     -2.70391700      2.30918800     -0.14178300
 1     -2.94703400      1.54965200      0.61859000
 1     -3.23552200      3.22942200      0.13685600
 1     -3.14103100      1.97473800     -1.09152600
 1     -5.26397900      0.19711900      3.47600300
 6      4.35984800      0.10203200     -0.01033900
 6      5.31420200     -0.32128800     -0.94672900
 6      4.55745000     -0.12206200      1.35584500
 6      6.46031500     -0.97215800     -0.50575300
 1      5.18127300     -0.14197500     -2.02800600
 6      5.71140600     -0.77738000      1.77635600
 1      3.80294200      0.18505800      2.10327300
 6      6.66057500     -1.20256700      0.85270900
 1      7.21108100     -1.30743600     -1.23734100
 1      5.86890200     -0.95893000      2.85044000
 1      7.56887700     -1.72114500      1.19447200


