%nprocshared=8
%mem=3GB
#p b3lyp cc-pVTZ empiricaldispersion=gd3bj scrf=(pcm,solvent=diethylether)

title

0 1
16      1.77354400     -1.16487100     -0.77828100
 8      0.20053800      3.10880300      1.48709600
 7     -0.84543300      2.41695400     -0.39552200
 7      1.57829100      0.63112300      1.21600500
 1      2.00778100      1.33396700      1.80772100
 7      3.70397700      0.15388600      0.58243200
 1      3.93725200      0.95660500      1.15605900
 6     -1.14619900      1.42794800     -1.46153500
 1     -0.27551000      0.78474100     -1.61143100
 6     -1.34700700      2.32769800     -2.70477400
 1     -2.04875900      1.88280800     -3.41404900
 1     -0.38386700      2.44728800     -3.21258500
 6     -1.81728900      3.68028000     -2.14859800
 1     -2.89781800      3.67373400     -1.97697500
 1     -1.59807800      4.51062600     -2.82491500
 6     -1.06076600      3.80894200     -0.82363900
 1     -1.61049700      4.35817000     -0.05495600
 1     -0.09052100      4.30442400     -0.95128300
 6     -0.18649400      2.18195100      0.76334600
 6      0.12422800      0.72804900      1.14853400
 1     -0.19115500      0.03913300      0.37180500
 6      2.37243400     -0.08690600      0.38599100
 6     -0.54524400      0.26846900      2.48394100
 6     -0.36021100     -1.25512100      2.58864000
 1      0.69997700     -1.52790100      2.56089500
 1     -0.78205600     -1.62308900      3.53095400
 1     -0.86487700     -1.77135100      1.76440500
 6      0.08560800      0.94549100      3.71264300
 1      0.01248100      2.03345200      3.64925700
 1     -0.43093800      0.61060800      4.61923800
 1      1.14173000      0.67291900      3.82184200
 6     -2.04622700      0.59405000      2.43789900
 1     -2.53924200      0.09891700      1.59839700
 1     -2.52598800      0.25023600      3.36111800
 1     -2.22121000      1.67189900      2.35161700
 6     -4.14803800     -3.92492000     -0.44205400
 6     -3.09855500     -3.10804400     -0.79934100
 6     -3.24867600     -1.69606600     -0.80251900
 6     -4.50844100     -1.13150400     -0.42381500
 6     -5.57140400     -2.00013300     -0.06345100
 6     -5.39626000     -3.36620000     -0.07232100
 1     -1.22174500     -1.25836100     -1.41997200
 1     -4.02220700     -5.00376200     -0.44151800
 1     -2.13821700     -3.53138000     -1.08186600
 6     -2.18323700     -0.82588100     -1.15356700
 6     -4.64003600      0.28339800     -0.40825300
 1     -6.52660300     -1.56750700      0.22322700
 1     -6.21582800     -4.02209200      0.20680000
 6     -3.58278100      1.09667100     -0.73822400
 6     -2.32975900      0.54471900     -1.12102500
 1     -5.59176400      0.71678300     -0.11165000
 1     -3.69766900      2.17330900     -0.67639100
 6      4.82086200     -0.47133800     -0.02955000
 6      5.87697100      0.34207500     -0.45344600
 6      4.92020600     -1.86216600     -0.14401700
 6      7.02495100     -0.23152400     -0.99904800
 1      5.79211100      1.42153700     -0.36159700
 6      6.06388800     -2.42515600     -0.70669500
 1      4.10882900     -2.48785000      0.20406600
 6      7.11960500     -1.61696100     -1.13543400
 1      7.83961200      0.40834700     -1.32513400
 1      6.13356800     -3.50518000     -0.79793300
 1      8.00957300     -2.06419300     -1.56792600


