%nprocshared=8
%mem=6GB
#p b3lyp midix empiricaldispersion=gd3bj opt freq=noraman scrf=(pcm,solvent=diethylether)

title

0 1
16      2.15150500      0.00422000      1.47115400
 8     -0.51264900      1.60370000     -1.66659000
 7     -1.19446400      1.91923600      0.45440600
 7      2.16116700      1.39658100     -0.79529800
 1      2.23137000      1.45729700     -1.78951100
 7      3.02651200     -0.76755300     -0.93560500
 1      3.46656000     -0.51500100     -1.79325000
 6     -2.48504200      1.19860700      0.28376300
 1     -2.96352600      1.58165100     -0.66614600
 6     -3.28616200      1.60317600      1.53611600
 1     -3.98064700      0.80196500      1.87020200
 1     -3.95345000      2.46130600      1.30601800
 6     -2.25896000      1.96151700      2.61143300
 1     -2.18819300      1.16501700      3.38110100
 1     -2.55687200      2.87140700      3.17123900
 6     -0.91836900      2.15298900      1.89588800
 1     -0.13498300      1.44801300      2.28228800
 1     -0.50340800      3.18048900      2.02931500
 6     -0.19658000      1.94309700     -0.52597400
 6      1.24086300      2.38693400     -0.17866800
 1      1.43262300      2.38318700      0.94874600
 6      2.45112700      0.20879200     -0.12193700
 6      1.55656800      3.82808600     -0.65446600
 6      3.03184000      4.13278300     -0.38570800
 1      3.71119800      3.55816900     -1.02818600
 1      3.25187400      5.19232500     -0.57794400
 1      3.30899800      3.93232700      0.65787700
 6      1.27233800      4.08219600     -2.12878600
 1      0.21315400      3.95241500     -2.38394300
 1      1.52974500      5.11729300     -2.39593600
 1      1.85425100      3.43792400     -2.79979800
 6      0.72269100      4.80220000      0.18021600
 1      0.96119100      4.73111800      1.25137100
 1      0.91624200      5.84138700     -0.11900200
 1     -0.35677000      4.63490500      0.07320600
 6     -2.37840900     -0.30547000      0.19188800
 6     -3.51685800     -1.05463800     -0.24570800
 6     -1.21735700     -0.96823800      0.50615400
 6     -4.78229400     -0.45602600     -0.50029500
 6     -3.39122100     -2.44659300     -0.41835600
 6     -1.10409600     -2.36661800      0.32882600
 1     -0.31580200     -0.45226700      0.90307700
 6     -5.83729200     -1.21408400     -0.93645100
 1     -4.94361600      0.62242700     -0.33095300
 6     -4.49557900     -3.21473600     -0.87544900
 6     -2.16081900     -3.09860300     -0.13527500
 1     -0.12718600     -2.84245300      0.55398400
 6     -5.69408700     -2.60612800     -1.13546500
 1     -6.81257100     -0.74385400     -1.13362400
 1     -4.37402800     -4.30181300     -1.01642600
 1     -2.07461000     -4.18691300     -0.28952600
 1     -6.55418900     -3.19102400     -1.49392800
 6      3.47696500     -2.02876500     -0.40470900
 6      4.81523200     -2.39817400     -0.59059500
 6      2.57540300     -2.89887000      0.21666800
 6      5.24672900     -3.64130000     -0.14135000
 1      5.53233700     -1.72779200     -1.09485100
 6      3.02848400     -4.13752000      0.66167900
 1      1.50908100     -2.62368800      0.37922600
 6      4.35772300     -4.50942600      0.48641000
 1      6.29744500     -3.93664500     -0.28314800
 1      2.32496500     -4.82503900      1.15582900
 1      4.70640000     -5.49021800      0.84335100


