%nprocshared=8
%mem=3GB
#p b3lyp cc-pVTZ empiricaldispersion=gd3bj scrf=(pcm,solvent=diethylether)

title

0 1
16     -3.33600900     -0.82558000      1.09851100
 8      0.89243900     -1.60874100     -1.40135500
 7      0.81381300     -2.26146500      0.77507200
 7     -1.82064000     -1.16034500     -1.09560600
 1     -1.27318500     -0.74026700     -1.84146300
 7     -2.69364900      0.91961900     -0.87861700
 1     -2.02540300      1.12889500     -1.61167400
 6      2.20318900     -1.80457700      1.07990700
 6      2.22183000     -1.86100000      2.63029900
 1      1.85967200     -0.91716800      3.04568100
 1      3.23857600     -2.01792400      2.99887900
 6      1.26455600     -3.00428200      2.98607900
 1      0.86914900     -2.92503700      4.00170500
 1      1.76815400     -3.97188000      2.89963700
 6      0.15132700     -2.88766800      1.93689600
 1     -0.67113200     -2.25608900      2.29415000
 1     -0.26559500     -3.86000500      1.66835000
 6      0.26737500     -2.08912200     -0.44792100
 6     -1.22830500     -2.40593500     -0.61568600
 1     -1.69987500     -2.61210000      0.34240000
 6     -2.59185900     -0.33136900     -0.33929200
 6     -1.51980200     -3.60449500     -1.56555700
 6     -3.03397000     -3.87041500     -1.53410600
 1     -3.59245900     -2.99190700     -1.87258000
 1     -3.28512600     -4.70972400     -2.19253500
 1     -3.37381100     -4.11546900     -0.52176500
 6     -1.08290400     -3.32171000     -3.01246900
 1     -0.01217400     -3.11735600     -3.07707300
 1     -1.31466700     -4.18916300     -3.64091100
 1     -1.62182900     -2.46277900     -3.42773700
 6     -0.77061100     -4.83953800     -1.03725600
 1     -1.08818800     -5.09498700     -0.01958100
 1     -0.97907600     -5.70591100     -1.67423500
 1      0.31435800     -4.68478100     -1.03177100
 6      5.76959700      2.56364400     -1.56086700
 6      5.36104500      1.32096800     -1.11984900
 6      4.10884400      1.15130700     -0.48490700
 6      3.25451900      2.26805600     -0.29496900
 6      4.92712500      3.67597000     -1.37476800
 6      3.69499900     -0.14174200     -0.03879200
 6      1.97491100      2.05169400      0.36215300
 6      1.59859000      0.73962300      0.80213900
 6      2.50194200     -0.38378000      0.57704700
 6      0.33934400      0.60116800      1.43955500
 1      0.01081100     -0.36626000      1.77896500
 6     -0.51320100      1.67067300      1.63322900
 6     -0.13673500      2.95163000      1.20433800
 1      4.38631500     -0.95233900     -0.22988000
 1      6.73258900      2.68440200     -2.04834000
 1      5.99741600      0.45023300     -1.25636700
 1      5.24152900      4.65717700     -1.71864700
 1     -1.47820800      1.50518200      2.10100800
 1     -0.80288900      3.79559500      1.35074500
 6      3.69873300      3.52939700     -0.75570000
 6      1.08297400      3.12727900      0.58151600
 6     -3.42526700      2.05392600     -0.45736600
 6     -2.85753400      3.30657100     -0.72957600
 6     -4.68951000      1.98167500      0.13887200
 6     -3.53537500      4.47468000     -0.39050800
 1     -1.87527400      3.35921200     -1.19027100
 6     -5.35342200      3.15842600      0.48468600
 1     -5.14143500      1.01879600      0.32880200
 6     -4.78533100      4.40717100      0.22764800
 1     -3.08005100      5.43710600     -0.60517200
 1     -6.33191600      3.09213300      0.95160500
 1     -5.31249400      5.31645500      0.50011100
 1      3.07668400      4.40770000     -0.62891200
 1      1.35842200      4.12310300      0.25497100
 6      3.16045400     -2.86624700      0.50697100
 1      2.85220000     -3.85372400      0.86078200
 1      3.12288700     -2.86558400     -0.58456000
 1      4.19081700     -2.70286500      0.83393000


