%nprocshared=8
%mem=3GB
#p b3lyp cc-pVTZ empiricaldispersion=gd3bj scrf=(pcm,solvent=diethylether)

title

0 1
16     -2.64564300      0.30707600      1.57498200
 8      0.17315400     -1.70642000     -1.60540100
 7      0.55062800     -2.11357800      0.58925500
 7     -2.31758600     -0.85632800     -0.83253100
 1     -2.00646200     -0.73546800     -1.79284300
 7     -2.27105800      1.42040100     -0.85839000
 1     -1.86463100      1.29130500     -1.77829400
 6      1.97665200     -1.77965200      0.44704400
 1      2.35296700     -2.27039900     -0.45224700
 6      2.58456400     -2.37704200      1.73323900
 1      3.52008700     -1.88780400      2.01233000
 1      2.78413000     -3.44407600      1.58120900
 6      1.46712700     -2.18125400      2.76677900
 1      1.46238800     -1.14506700      3.11945800
 1      1.56536900     -2.83528200      3.63666800
 6      0.18354500     -2.46780600      1.97418400
 1     -0.66048500     -1.86718700      2.32271100
 1     -0.09134000     -3.52711700      2.02840200
 6     -0.26257400     -1.99437900     -0.48278600
 6     -1.78201400     -2.09869900     -0.26838300
 1     -2.02791100     -2.08334900      0.79064100
 6     -2.40073600      0.29496100     -0.09835300
 6     -2.43877800     -3.35864100     -0.89479700
 6     -3.92123400     -3.36784500     -0.48752600
 1     -4.42807300     -2.46422200     -0.84043500
 1     -4.42903600     -4.23792200     -0.91882800
 1     -4.03200500     -3.41420900      0.60201700
 6     -2.32720100     -3.37507400     -2.42880700
 1     -1.28636100     -3.32306500     -2.75622400
 1     -2.77311200     -4.29672700     -2.81924300
 1     -2.87188200     -2.53622600     -2.87740600
 6     -1.73820500     -4.60034500     -0.31727100
 1     -1.81352800     -4.62640200      0.77606900
 1     -2.20676200     -5.51144100     -0.70447000
 1     -0.67710600     -4.62960300     -0.58954100
 6      2.19985400     -0.27550500      0.33005500
 6      3.45656600      0.21788100     -0.14793800
 6      1.22190000      0.62179000      0.70642700
 6      4.52680800     -0.63522200     -0.53594300
 6      3.65692100      1.63646700     -0.24123800
 6      1.42332600      2.01895400      0.61908300
 1      0.26637700      0.26162400      1.07068000
 6      5.72064800     -0.12160200     -0.99334100
 1      4.40806100     -1.71098200     -0.46970000
 6      4.89869700      2.13227200     -0.71914900
 6      2.61384800      2.51795500      0.14901000
 1      0.62269200      2.68720100      0.92020000
 6      5.91134200      1.27651600     -1.08765700
 1      6.52198700     -0.79489200     -1.28391100
 1      5.03502000      3.20883400     -0.78534300
 1      2.77812700      3.58986000      0.07341200
 1      6.85661000      1.67006100     -1.45007400
 6     -2.35909300      2.77625800     -0.44933000
 6     -1.36518300      3.65700900     -0.88956400
 6     -3.42971400      3.25133100      0.31438900
 6     -1.43482900      5.00900800     -0.55502700
 1     -0.53313300      3.27763900     -1.47588300
 6     -3.48277900      4.60161600      0.65503400
 1     -4.20596200      2.56852900      0.63474000
 6     -2.48987100      5.48495400      0.22447500
 1     -0.65806800      5.68560400     -0.89881200
 1     -4.31325600      4.96586400      1.25260400
 1     -2.54105200      6.53617000      0.49162400


