%nprocshared=8
%mem=6GB
#p b3lyp midix empiricaldispersion=gd3bj opt freq=noraman scrf=(pcm,solvent=diethylether)

title

0 1
16     -2.28989700      1.80128600      1.12104700
 8     -1.10818400     -1.96198700     -1.45836500
 7     -1.10159200     -1.93793500      0.79673700
 7     -2.58350100      0.51181900     -1.18765600
 1     -2.34338500      0.36600100     -2.14643900
 7     -1.30884100      2.46859100     -1.27082700
 1     -1.46406300      2.51932400     -2.25320100
 6      0.11105800     -2.80216300      0.89243800
 1     -0.05018800     -3.70325000      0.21922800
 6      0.18472200     -3.28975100      2.34946600
 1      1.06272300     -2.87354700      2.89256600
 1      0.34094200     -4.38819400      2.39072300
 6     -1.12318900     -2.88279200      3.02981500
 1     -0.92734000     -2.33998900      3.97906000
 1     -1.71996300     -3.76943800      3.32852100
 6     -1.89574600     -1.99635600      2.05144500
 1     -2.02738400     -0.95523000      2.43970900
 1     -2.92896700     -2.38332800      1.87209300
 6     -1.70039200     -1.62595100     -0.43477500
 6     -2.95962500     -0.72985500     -0.46170600
 1     -3.29552500     -0.44291200      0.59479500
 6     -2.03829300      1.58740800     -0.47252100
 6     -4.18800200     -1.41450800     -1.11208000
 6     -5.37118800     -0.44238200     -1.08185000
 1     -5.23032500      0.42185200     -1.74275600
 1     -6.29273700     -0.93930400     -1.41594700
 1     -5.56334300     -0.05803200     -0.07099700
 6     -3.98433000     -1.87026100     -2.55107000
 1     -3.20715000     -2.63734800     -2.65108700
 1     -4.90854000     -2.31901500     -2.94383500
 1     -3.72964400     -1.04999900     -3.23371000
 6     -4.56690200     -2.62831800     -0.26142400
 1     -4.86246300     -2.33546600      0.75653000
 1     -5.42485800     -3.16020300     -0.69515600
 1     -3.75139600     -3.35770200     -0.17320600
 6      5.17799500     -2.12525500     -2.54595000
 6      4.02929600     -2.70387000     -2.05457800
 6      3.30411900     -2.06447300     -1.02453100
 6      3.75204700     -0.84695300     -0.50155600
 6      5.62912000     -0.89837700     -2.02705700
 6      2.09898800     -2.65775500     -0.52914100
 6      2.99842000     -0.22523000      0.56082300
 6      1.84245100     -0.84853300      1.07237600
 6      1.37651500     -2.07998900      0.47418900
 6      1.18255000     -0.23033200      2.15915900
 1      0.30112500     -0.68971400      2.63837100
 6      1.61609300      0.97573200      2.66438700
 6      2.73532500      1.61754800      2.11238100
 1      1.77437900     -3.59983800     -1.01265700
 1      5.74827200     -2.61724400     -3.34810900
 1      3.66835000     -3.66320900     -2.46189200
 1      6.54683200     -0.44438400     -2.43022700
 1      1.07785000      1.44766900      3.50076900
 1      3.04976200      2.60055000      2.49790300
 6      4.93000300     -0.26702000     -1.02268200
 6      3.42605400      1.01423600      1.08678500
 6     -0.61791900      3.60328800     -0.71972500
 6     -0.84803500      4.87280700     -1.26367700
 6      0.33320200      3.42011800      0.28901000
 6     -0.12121600      5.95768900     -0.78443500
 1     -1.58484800      5.02859700     -2.07009400
 6      1.05297100      4.51743300      0.75088800
 1      0.52259900      2.42590200      0.74136200
 6      0.82723600      5.78373800      0.22007000
 1     -0.29887800      6.95900200     -1.20505300
 1      1.80940200      4.36200400      1.53912600
 1      1.39831500      6.64722000      0.59252800
 1      5.28634900      0.70137300     -0.61728900
 1      4.32550400      1.50661900      0.66390500


