%nprocshared=8
%mem=6GB
#p b3lyp midix empiricaldispersion=gd3bj opt freq=noraman scrf=(pcm,solvent=diethylether)

title

0 1
16     -0.78069300      1.74467600      1.54084200
 8     -1.59076100     -1.06624700     -1.68587100
 7     -1.92210000     -1.79443600      0.41581500
 7     -2.00444600      1.59635600     -0.81765200
 1     -1.98673200      1.65579400     -1.81444300
 7      0.00519800      2.78592900     -0.79380200
 1     -0.24232100      3.18103500     -1.67441600
 6     -0.95462900     -2.92311200      0.31180400
 1     -1.21737400     -3.52488900     -0.60941900
 6     -1.20015800     -3.74076800      1.59252900
 1     -0.27660700     -4.22212800      1.97711500
 1     -1.88958900     -4.58731700      1.38860700
 6     -1.79886100     -2.77281600      2.61464700
 1     -1.03173900     -2.45481300      3.35357000
 1     -2.59906300     -3.25081200      3.21446100
 6     -2.32184200     -1.56757700      1.82939200
 1     -1.90049700     -0.60588700      2.23261900
 1     -3.43176600     -1.46118300      1.87648300
 6     -2.07766300     -0.82738000     -0.57995900
 6     -2.83877200      0.48482700     -0.29216300
 1     -2.98455300      0.66773900      0.82593100
 6     -0.91376200      2.04304700     -0.05809300
 6     -4.26391100      0.49799700     -0.89998400
 6     -4.90054600      1.86784100     -0.65511900
 1     -4.42508700      2.66857300     -1.23572400
 1     -5.95984600      1.86331800     -0.94790500
 1     -4.86201700      2.15578100      0.40392000
 6     -4.31959800      0.20184300     -2.39252500
 1     -3.93714700     -0.79589300     -2.64103100
 1     -5.35871000      0.23263700     -2.75077900
 1     -3.76418100      0.92863500     -2.99856400
 6     -5.10572000     -0.54485400     -0.16104700
 1     -5.17060900     -0.33046000      0.91558300
 1     -6.13494400     -0.56266800     -0.54460700
 1     -4.70781600     -1.56222700     -0.26691100
 6      4.84281500     -2.79927900     -1.83162700
 6      3.53247000     -3.19508600     -1.77277700
 6      2.66948700     -2.63703300     -0.79167400
 6      3.17088800     -1.68569000      0.11122900
 6      4.53107800     -1.28553300      0.02995700
 6      5.34612600     -1.83581300     -0.92401500
 1      0.92656600     -3.76498700     -1.45131800
 1      5.51915800     -3.22552400     -2.58762900
 1      3.13368900     -3.94178500     -2.47927500
 6      1.30606700     -3.02714100     -0.72079800
 6      2.30823000     -1.13537200      1.09494400
 1      4.91292500     -0.53147400      0.73816600
 1      6.40164800     -1.53373000     -0.99625300
 6      0.99898100     -1.53285500      1.16163300
 6      0.48634500     -2.48021800      0.23771000
 1      2.70368500     -0.38376300      1.80064800
 1      0.33955000     -1.10146500      1.93907100
 6      1.19623800      3.34402700     -0.21368700
 6      1.50071000      4.68746600     -0.47003200
 6      2.07240300      2.54170900      0.52469200
 6      2.68471400      5.22231500      0.02533700
 1      0.82672300      5.32725200     -1.06558000
 6      3.25235300      3.09675800      1.01051000
 1      1.83903900      1.48029500      0.74639600
 6      3.55940500      4.43162500      0.76564600
 1      2.92868200      6.27739300     -0.17090300
 1      3.94475100      2.46680400      1.59024400
 1      4.49371400      4.86238600      1.15571900


