%nprocshared=8
%mem=3GB
#p b3lyp cc-pVTZ empiricaldispersion=gd3bj scrf=(pcm,solvent=diethylether)

title

0 1
16     -1.08990600      2.18804200      1.64024400
 8     -1.64113900     -1.08612100     -1.65698700
 7     -2.04092900     -1.69182600      0.48506700
 7     -1.90053700      1.49347000     -0.83200900
 1     -1.60990300      1.26250100     -1.77881300
 7      0.24035100      2.25397700     -0.71748800
 1      0.30978700      1.82856300     -1.63512600
 6     -1.09229400     -2.81746900      0.37499000
 1     -1.31924800     -3.39483100     -0.52401500
 6     -1.38764900     -3.62765600      1.65393000
 1     -0.52406300     -4.21676800      1.97085300
 1     -2.21994100     -4.31410900      1.46109600
 6     -1.80378100     -2.56006500      2.67476300
 1     -0.91827400     -2.07451400      3.09622800
 1     -2.39178100     -2.96388800      3.50269700
 6     -2.60721600     -1.55153800      1.84017500
 1     -2.49256700     -0.53009000      2.21089300
 1     -3.67391000     -1.80264900      1.82752200
 6     -2.16903700     -0.84745800     -0.56235600
 6     -2.87106900      0.50537300     -0.34927100
 1     -3.01527600      0.71023800      0.70871800
 6     -0.90060800      1.97095900     -0.02556100
 6     -4.24699200      0.63881500     -1.05479800
 6     -4.85825100      1.98865000     -0.64562200
 1     -4.20419400      2.81693500     -0.93549700
 1     -5.82981800      2.13027000     -1.13257800
 1     -5.01037800      2.04142100      0.43864700
 6     -4.12550900      0.57209600     -2.58665500
 1     -3.64609000     -0.35419700     -2.91172500
 1     -5.12248000      0.62777700     -3.03787100
 1     -3.54496200      1.41548400     -2.97805400
 6     -5.14911600     -0.50580900     -0.56216600
 1     -5.25933900     -0.48386900      0.52833200
 1     -6.14888100     -0.41256900     -0.99951100
 1     -4.75077500     -1.48628200     -0.84713100
 6      4.89968600     -2.83099500     -1.36699000
 6      3.60537300     -3.29317100     -1.28100800
 6      2.62824800     -2.58476500     -0.53133700
 6      3.01440800     -1.37804100      0.13717900
 6      4.35676900     -0.92733500      0.02982500
 6      5.27967300     -1.63613700     -0.70625100
 1      0.99183500     -3.93165400     -0.96109700
 1      5.63674100     -3.38211100     -1.94413300
 1      3.31192800     -4.20872100     -1.78854400
 6      1.28110300     -3.02333400     -0.43628600
 6      2.03144400     -0.66673800      0.87292800
 1      4.63840900     -0.00864300      0.53708800
 1      6.30409000     -1.28288900     -0.78293300
 6      0.73585100     -1.11972500      0.94151200
 6      0.34172200     -2.31521900      0.28195700
 1      2.30983000      0.25841800      1.36835100
 1      0.00216000     -0.53068900      1.47960700
 6      1.46161900      2.80610900     -0.25883800
 6      1.51653200      3.90238200      0.60792500
 6      2.64496000      2.24963900     -0.75927000
 6      2.75674200      4.41347500      0.98812900
 1      0.60049700      4.34323900      0.97720900
 6      3.87863600      2.77760800     -0.38392100
 1      2.59707700      1.39023500     -1.42162600
 6      3.94059700      3.85746100      0.49839900
 1      2.79379700      5.26166900      1.66543300
 1      4.78880400      2.33470800     -0.77719400
 1      4.90130400      4.26532800      0.79787100


