%nprocshared=8
%mem=3GB
#p b3lyp cc-pVTZ empiricaldispersion=gd3bj scrf=(pcm,solvent=diethylether)

title

0 1
16     -2.54445500     -0.28575400      1.79178600
 8      0.35741100     -1.42693300     -1.63775500
 7      1.14037100     -1.70899000      0.48684900
 7     -2.15407400     -1.41852900     -0.62464900
 1     -1.94856100     -1.21126600     -1.59865400
 7     -3.20140600      0.59494900     -0.67943900
 1     -3.36387400      0.33477400     -1.64602900
 6      2.48038900     -1.10216000      0.21605700
 6      3.23083000     -1.46598800      1.52441800
 1      4.07031500     -0.79812500      1.71878400
 1      3.61765000     -2.48889500      1.43869000
 6      2.15072800     -1.39513400      2.60195400
 1      1.93619500     -0.35100000      2.85128400
 1      2.42265000     -1.91818500      3.52214500
 6      0.93983400     -2.02932900      1.91718400
 1     -0.00412900     -1.61655900      2.27892200
 1      0.93007100     -3.11573100      2.05954600
 6      0.19337100     -1.81510400     -0.47409000
 6     -1.18874200     -2.37943600     -0.09099300
 1     -1.33283600     -2.39414300      0.98564500
 6     -2.62454500     -0.36241500      0.10433700
 6     -1.44750200     -3.81830900     -0.62706300
 6     -2.80905800     -4.28198800     -0.08332600
 1     -3.61070000     -3.61468900     -0.41477100
 1     -3.03501000     -5.29374800     -0.43836900
 1     -2.81230000     -4.29708100      1.01263200
 6     -1.46179000     -3.87656300     -2.16372000
 1     -0.52152400     -3.51870200     -2.58933500
 1     -1.62304100     -4.91031700     -2.48961800
 1     -2.27701900     -3.27335000     -2.57934200
 6     -0.34220000     -4.74458100     -0.09184600
 1     -0.31874900     -4.74467300      1.00387200
 1     -0.52451400     -5.77350300     -0.42000500
 1      0.64791600     -4.44885700     -0.45601000
 6      2.35514000      0.43251300      0.06708900
 6      3.49700400      1.26900100     -0.20707900
 6      1.12315100      1.04047800      0.22063100
 6      4.84093200      0.80137900     -0.28974300
 6      3.29380600      2.68360800     -0.38432900
 6      0.93240900      2.43030300      0.05738600
 1      0.25803400      0.44521200      0.47791000
 6      5.89420200      1.64812200     -0.55659700
 1      5.06106900     -0.24243800     -0.12449500
 6      4.39959400      3.52821500     -0.67048500
 6      1.99427300      3.23767700     -0.25773300
 1     -0.06522400      2.84428500      0.17129200
 6      5.67671600      3.02854000     -0.76105600
 1      6.90253800      1.24717900     -0.60632500
 1      4.21109000      4.58987900     -0.80883200
 1      1.86407200      4.30707000     -0.40116100
 1      6.51320900      3.68666300     -0.97703900
 6     -3.74771300      1.85240200     -0.32007800
 6     -4.90041400      2.27377900     -0.99269400
 6     -3.13218800      2.70261700      0.60631800
 6     -5.44031400      3.53307500     -0.73602100
 1     -5.37423100      1.61094200     -1.71196200
 6     -3.68757900      3.95428200      0.86520200
 1     -2.23660300      2.38128900      1.12031900
 6     -4.84018400      4.37689600      0.19928400
 1     -6.33545000      3.84813700     -1.26404300
 1     -3.20619900      4.60668700      1.58786200
 1     -5.26376200      5.35520300      0.40520100
 6      3.11508500     -1.78879500     -1.01156900
 1      2.71321000     -1.39094600     -1.94129600
 1      4.19950500     -1.67852500     -1.01489500
 1      2.89254000     -2.85956700     -0.96640500


