%nprocshared=8
%mem=6GB
#p b3lyp midix empiricaldispersion=gd3bj opt freq=noraman scrf=(pcm,solvent=diethylether)

title

0 1
16      1.82617000     -0.80916700     -0.75981100
 8      0.31292200      3.16956400      1.29280400
 7     -0.91507100      2.33926500     -0.39793700
 7      1.64115100      0.63270600      1.46842200
 1      2.02416500      1.24673600      2.15744900
 7      3.80781600      0.20723700      0.73243800
 1      4.13167300      0.52494900      1.62049100
 6     -1.10210500      1.29503900     -1.45418000
 1     -0.15690600      0.65761600     -1.55782400
 6     -1.35064700      2.06675900     -2.76346800
 1     -2.17667700      1.63415900     -3.36694500
 1     -0.46107100      2.00714600     -3.42581700
 6     -1.64848300      3.51232800     -2.37222900
 1     -2.74139600      3.71433200     -2.36922200
 1     -1.23010000      4.23334400     -3.10332700
 6     -1.04370700      3.70480700     -0.98314600
 1     -1.68086200      4.33479000     -0.32362900
 1     -0.06349100      4.23611600     -1.03887500
 6     -0.11661600      2.15462500      0.74242500
 6      0.17182200      0.74399100      1.29112800
 1     -0.18731100     -0.06261300      0.56308500
 6      2.44154900      0.02959600      0.50400300
 6     -0.57681000      0.45473900      2.62059200
 6     -0.39653200     -1.02528400      2.97214200
 1      0.64261900     -1.28000100      3.21449400
 1     -0.99575000     -1.29299100      3.85356100
 1     -0.71811100     -1.68890100      2.15765800
 6     -0.11009800      1.28498700      3.81049700
 1     -0.18349200      2.36409200      3.63038600
 1     -0.73553600      1.07369300      4.69003000
 1      0.92053000      1.06613300      4.11871200
 6     -2.06798200      0.70992300      2.40553200
 1     -2.45831500      0.17297500      1.52616800
 1     -2.65339600      0.37903400      3.27434600
 1     -2.29409000      1.77511600      2.26740800
 6     -4.10090600     -3.96540900     -0.19548500
 6     -3.02260100     -3.17592100     -0.49722600
 6     -3.19782700     -1.77599700     -0.66471100
 6     -4.47664900     -1.21410800     -0.51995700
 6     -5.58053800     -2.05077300     -0.20641300
 6     -5.39009700     -3.39840200     -0.04850700
 1     -1.08491100     -1.40111900     -1.07923200
 1     -3.97637800     -5.05078500     -0.06426900
 1     -2.01547000     -3.61015800     -0.61282500
 6     -2.09086000     -0.94226100     -0.97313600
 6     -4.64974900      0.18448300     -0.69350500
 1     -6.58133800     -1.60215800     -0.09421200
 1     -6.23843200     -4.05579000      0.19411600
 6     -3.57344300      0.97680700     -0.99387200
 6     -2.27909100      0.41123400     -1.12557600
 1     -5.65719300      0.61949700     -0.58645000
 1     -3.70882500      2.06224100     -1.14247100
 6      4.81968700     -0.48801100     -0.01767100
 6      5.82969300     -1.15849200      0.68710600
 6      4.84355900     -0.43433600     -1.41454300
 6      6.85608100     -1.77761900     -0.01646600
 1      5.83411600     -1.19877500      1.79032800
 6      5.87948200     -1.06250000     -2.10038100
 1      4.04205300      0.07236400     -1.98263600
 6      6.88249200     -1.73272000     -1.40790000
 1      7.65008200     -2.30673200      0.53209100
 1      5.90022200     -1.02588400     -3.20022600
 1      7.69649200     -2.22764900     -1.95859700


