%nprocshared=8
%mem=6GB
#p b3lyp midix empiricaldispersion=gd3bj opt freq=noraman scrf=(pcm,solvent=diethylether)

title

0 1
16     -2.58593400      0.68876600     -0.83058700
 8     -0.93453200     -2.96785300      1.68293300
 7      0.18661300     -2.34093700     -0.16237600
 7     -2.35057600     -0.47832000      1.54838900
 1     -2.71419600     -1.01167300      2.31129900
 7     -4.53237500     -0.18787600      0.79299300
 1     -4.83770000     -0.40823900      1.71643800
 6      0.40565100     -1.39151000     -1.29562800
 1     -0.57389900     -0.82151500     -1.47024700
 6      0.69119400     -2.24315100     -2.54399800
 1      1.72509700     -2.09971300     -2.93115300
 1      0.04382600     -1.92865500     -3.38980400
 6      0.44869200     -3.70264300     -2.16414400
 1      1.32322900     -4.33601500     -2.42590700
 1     -0.39464000     -4.13735000     -2.74027700
 6      0.17741400     -3.74850800     -0.65938700
 1      0.95822400     -4.32241700     -0.10900400
 1     -0.77834000     -4.28583000     -0.44682400
 6     -0.55846400     -2.02231700      0.98910200
 6     -0.87810500     -0.56520100      1.37728400
 1     -0.54862900      0.16304300      0.56057400
 6     -3.17239600     -0.00853000      0.52972800
 6     -0.13729200     -0.10056200      2.66065300
 6     -0.36322900      1.40445000      2.83846100
 1     -1.40951900      1.65459700      3.05283100
 1      0.22767100      1.79027000      3.68088500
 1     -0.06033800      1.97777000      1.95131400
 6     -0.57292100     -0.79836400      3.94388100
 1     -0.45543400     -1.88738800      3.89860500
 1      0.04239800     -0.45643700      4.78902400
 1     -1.61164200     -0.58490600      4.22736100
 6      1.36073700     -0.32892300      2.46816500
 1      1.73800900      0.15044700      1.55029000
 1      1.93346600      0.08846400      3.30779400
 1      1.61972100     -1.39404400      2.41383400
 6      2.74442400      4.28619600     -0.66610200
 6      1.79993200      3.30083000     -0.93418800
 6      2.16199500      1.95161600     -0.86005500
 6      3.47840600      1.59601700     -0.51856200
 6      4.05000900      3.94783100     -0.32232400
 6      1.20015900      0.91583900     -1.11120200
 6      3.84479000      0.21660000     -0.46182900
 6      2.89470800     -0.79747300     -0.74056900
 6      1.52881500     -0.40596900     -1.03674100
 6      3.33342700     -2.12643800     -0.72008400
 1      2.65778800     -2.96482000     -0.96014200
 6      4.65021700     -2.44467600     -0.40242800
 6      5.57469900     -1.45361400     -0.10219300
 1      0.16349500      1.24935300     -1.34608500
 1      2.45553000      5.34658200     -0.72623600
 1      0.76698100      3.57970200     -1.20289300
 1      4.78966700      4.73773200     -0.11056200
 1      4.96175500     -3.50051100     -0.38920000
 1      6.61387700     -1.71780000      0.15522000
 6      4.42581600      2.60380700     -0.24710200
 6      5.17701000     -0.11490300     -0.13710800
 6      5.77176400      2.23154700      0.10067700
 1      6.49917100      3.03080100      0.31991800
 6      6.12938000      0.92698800      0.15235700
 1      7.15994500      0.63456800      0.41554500
 6     -5.56967800      0.39704200     -0.01412300
 6     -6.59783500      1.10007500      0.63079000
 6     -5.60037700      0.20710500     -1.39890500
 6     -7.64731100      1.61559800     -0.12035800
 1     -6.59947100      1.24633600      1.72501700
 6     -6.65994100      0.73273300     -2.13330400
 1     -4.78754500     -0.32856900     -1.92286300
 6     -7.67998700      1.43543600     -1.50070200
 1     -8.45491200      2.16994000      0.38148000
 1     -6.68575600      0.58830600     -3.22412300
 1     -8.51245900      1.84891200     -2.08961000


