%nprocshared=8
%mem=20GB
#p b3lyp 6-31g* empiricaldispersion=gd3bj opt freq=noraman scrf=(pcm,solvent=diethylether)

title

0 1
16     -2.12089100      1.30629600     -0.39569300
 8     -0.48833800     -3.35941400      1.27286200
 7      0.55702700     -2.61674700     -0.59887500
 7     -1.97248300     -0.98200900      0.96656200
 1     -2.38218200     -1.83158800      1.37106500
 7     -4.10468600     -0.31454500      0.58492900
 1     -4.30273400     -1.18719100      1.08724300
 6      0.78490600     -1.65764500     -1.73164400
 6      1.59643300     -2.53513900     -2.74151500
 1      2.66789000     -2.47563500     -2.52921300
 1      1.43267900     -2.17785900     -3.76362600
 6      1.06760300     -3.97075000     -2.51318300
 1      1.79795500     -4.73086600     -2.81176400
 1      0.14930300     -4.13645700     -3.08956500
 6      0.76716700     -4.03099800     -0.99830800
 1      1.60617700     -4.45364300     -0.42675900
 1     -0.12411700     -4.61526800     -0.74888700
 6     -0.12557800     -2.40240800      0.55965200
 6     -0.50664000     -0.97473200      0.98460600
 1     -0.18115800     -0.22115800      0.27183500
 6     -2.77368400     -0.03464300      0.41452400
 6      0.03577500     -0.59572300      2.41029700
 6     -0.02460600      0.94165400      2.54340400
 1     -1.03824700      1.31471800      2.34915800
 1      0.28074600      1.24152700      3.55717000
 1      0.65259500      1.41497700      1.81709300
 6     -0.82032400     -1.25143300      3.51400300
 1     -0.85027000     -2.33601800      3.35764600
 1     -0.37892400     -1.03402800      4.49731400
 1     -1.84454700     -0.85364500      3.50252000
 6      1.49869000     -1.05395200      2.57195700
 1      2.14516300     -0.58948000      1.82236200
 1      1.85963000     -0.76105000      3.56892100
 1      1.57848000     -2.14534600      2.48237000
 6      1.83418200      4.44634900     -1.05196500
 6      1.19413400      3.28616700     -1.48054300
 6      1.74191700      2.02642400     -1.20038300
 6      2.95192200      1.93709700     -0.46381400
 6      3.02916500      4.36978000     -0.33944200
 6      1.09658500      0.81891200     -1.61007400
 6      3.49196000      0.65619900     -0.15409000
 6      2.81842000     -0.54023400     -0.56261900
 6      1.57112300     -0.42154400     -1.30020600
 6      3.38835800     -1.77061400     -0.19195200
 1      2.88073900     -2.69179300     -0.43149800
 6      4.57526300     -1.83536100      0.53257400
 6      5.23199700     -0.67615400      0.92538500
 1      0.15967200      0.93011200     -2.14069100
 1      1.39720900      5.41754100     -1.27128700
 1      0.25394500      3.34256800     -2.02521700
 1      3.52713200      5.27853500     -0.00642500
 1      4.98017800     -2.80732900      0.80409600
 1      6.15458200     -0.73040000      1.49997700
 6      3.60463800      3.12823500     -0.03204300
 6      4.70468300      0.57907700      0.59639900
 6      4.82697300      3.01293200      0.70997500
 1      5.32331000      3.92624300      1.03296800
 6      5.35023600      1.79444500      1.00790200
 1      6.27552700      1.71169400      1.57540700
 6     -5.27768300      0.36985100      0.19472200
 6     -6.49277200     -0.29451400      0.43651400
 6     -5.29844300      1.64546300     -0.38514000
 6     -7.70249400      0.30312100      0.10194600
 1     -6.48172700     -1.28532100      0.88822100
 6     -6.51801000      2.23215200     -0.71806800
 1     -4.35148400      2.13409100     -0.56368000
 6     -7.72413000      1.57267500     -0.48085500
 1     -8.63201300     -0.22685300      0.29617000
 1     -6.51826500      3.22255200     -1.16788700
 1     -8.66960300      2.03977300     -0.74453300
 6     -0.58466700     -1.33057100     -2.37402500
 1     -1.12504400     -2.26956000     -2.54464700
 1     -1.19295600     -0.67928700     -1.73751900
 1     -0.44627100     -0.83159600     -3.34241900


