%nprocshared=8
%mem=6GB
#p pddg opt freq=noraman scrf=(pcm,solvent=diethylether)

title

0 1
16     -2.30108200      2.04923200      1.10811400
 8     -1.56935100     -1.85302300     -1.46489000
 7     -1.56203300     -1.84047400      0.79003000
 7     -2.71807200      0.78231200     -1.19443900
 1     -2.48229200      0.59492400     -2.14718600
 7     -1.21214400      2.57022600     -1.27090400
 1     -1.32157800      2.61321000     -2.25943600
 6     -0.46602200     -2.85006300      0.88429900
 1     -0.73738500     -3.72271400      0.20921100
 6     -0.45500600     -3.34344100      2.34116100
 1      0.46395900     -3.03313100      2.88733000
 1     -0.42917900     -4.45253000      2.38210400
 6     -1.70765000     -2.78539000      3.01815200
 1     -1.45478400     -2.28201400      3.97569200
 1     -2.41139100     -3.59562200      3.30150000
 6     -2.35738600     -1.79997300      2.04456200
 1     -2.35285200     -0.75187900      2.43550500
 1     -3.43190700     -2.04965700      1.86383000
 6     -2.11596300     -1.45019500     -0.44007500
 6     -3.24932100     -0.39857800     -0.46330900
 1     -3.54158300     -0.07038600      0.59415100
 6     -2.05161200      1.78890100     -0.47995500
 6     -4.55653300     -0.91846000     -1.11077700
 6     -5.60295500      0.19914200     -1.07842000
 1     -5.35569400      1.03363700     -1.74622900
 1     -6.58375300     -0.17558600     -1.40308200
 1     -5.73518000      0.61125700     -0.06887500
 6     -4.41403900     -1.39435900     -2.55025300
 1     -3.74265800     -2.25562200     -2.65169300
 1     -5.38856000     -1.71842800     -2.94374900
 1     -4.05375600     -0.61253600     -3.23034700
 6     -5.08806500     -2.07421100     -0.26111300
 1     -5.35534200     -1.74475000      0.75341800
 1     -6.00013400     -2.49928500     -0.70212900
 1     -4.36788200     -2.89680700     -0.16317100
 6      4.67670200     -2.73822300     -2.53412600
 6      3.46010100     -3.20482900     -2.04712300
 6      2.80348700     -2.50647200     -1.02821300
 6      3.37814000     -1.33855300     -0.49675600
 6      5.25174600     -1.57816300     -2.02322500
 6      1.53318300     -2.95174200     -0.52720900
 6      2.71219300     -0.64051700      0.55671600
 6      1.48273800     -1.11709900      1.07583100
 6      0.87981000     -2.28952100      0.46902700
 6      0.91726100     -0.42347000      2.15205400
 1     -0.01609800     -0.76062700      2.63581000
 6      1.50965500      0.72974000      2.65694800
 6      2.68761100      1.22697800      2.11431000
 1      1.10512300     -3.85298600     -1.00743400
 1      5.18958600     -3.29164200     -3.33544300
 1      3.01097800     -4.12142900     -2.46472600
 1      6.21409900     -1.21502400     -2.42064600
 1      1.02976300      1.26166000      3.49322100
 1      3.12904900      2.16307600      2.49960700
 6      4.60765400     -0.87103300     -1.00406200
 6      3.30671800      0.53037200      1.07315500
 6      5.18254000      0.33279200     -0.46296500
 1      6.14112800      0.68978700     -0.87515600
 6      4.55288000      1.00689900      0.52803700
 1      4.98830100      1.92935000      0.94795400
 6     -0.39653600      3.61661200     -0.71683000
 6     -0.47596000      4.90492300     -1.25759700
 6      0.52845100      3.31911000      0.28944500
 6      0.37502700      5.89447000     -0.77583400
 1     -1.18728400      5.14878300     -2.06488700
 6      1.37514700      4.32122500      0.75242900
 1      0.60414300      2.30795700      0.73541500
 6      1.29850400      5.60695300      0.22582600
 1      0.31641300      6.91116500     -1.19307500
 1      2.11131900      4.07076700      1.53578400
 1      1.96828400      6.39617900      0.59857500


