%nprocshared=8
%mem=3GB
#p b3lyp cc-pVTZ empiricaldispersion=gd3bj scrf=(pcm,solvent=diethylether)

title

0 1
16      1.74049200     -1.24649100     -0.90954300
 8     -0.99678500      2.05937700      2.08632300
 7     -2.16646300      1.62755200      0.20046100
 7      0.93354200      0.32961800      1.11560000
 1      1.12719900      1.04621500      1.80782500
 7      3.12686100      0.53104900      0.58904700
 1      3.07407400      1.35285000      1.18011500
 6     -2.05504600     -1.35602000     -1.83943900
 1     -1.07265900     -1.16542800     -2.25394700
 6     -2.55375600     -2.66172300     -1.86810300
 1     -1.95439500     -3.45060400     -2.31318100
 6     -3.80602900     -2.94940800     -1.32971100
 6     -4.55712500     -1.91943300     -0.75752300
 1     -5.53398500     -2.12797000     -0.33032700
 6     -4.05055300     -0.62294000     -0.71887600
 1     -4.63444700      0.15700300     -0.24243100
 6     -2.79136400     -0.31864800     -1.25775100
 6     -2.27641800      1.12348400     -1.21304700
 6     -3.33085800      2.10555900     -1.82815900
 1     -4.03428900      1.57248200     -2.47078900
 1     -2.80680700      2.83823800     -2.45007700
 6     -4.00575200      2.82141600     -0.65226900
 1     -4.85283500      2.24467100     -0.26814900
 1     -4.37730900      3.81287200     -0.92504100
 6     -2.89857800      2.88936300      0.39295500
 1     -3.25598800      2.95142000      1.42220400
 1     -2.23117600      3.74497400      0.22203200
 6     -1.23661600      1.30250800      1.13459300
 6     -0.47982000     -0.03080100      1.05681100
 1     -0.64899100     -0.54629100      0.11693600
 6      1.93729700     -0.09260300      0.31423700
 6     -0.88251500     -1.00757400      2.22161100
 6     -0.35313800     -2.40672400      1.86586900
 1      0.73085600     -2.39836000      1.72076100
 1     -0.58771200     -3.11053600      2.67327900
 1     -0.81039800     -2.77773500      0.94233600
 6     -0.28509500     -0.56648800      3.56821000
 1     -0.60992900      0.44158300      3.83579300
 1     -0.60860900     -1.25888000      4.35356100
 1      0.80990700     -0.58516900      3.54404000
 6     -2.41286500     -1.06843200      2.34601300
 1     -2.88005800     -1.38135800      1.41003900
 1     -2.68786100     -1.79385000      3.12013900
 1     -2.83375300     -0.09920400      2.63470000
 1     -4.19445200     -3.96343600     -1.35266900
 6      4.39811300      0.32421600     -0.00203800
 6      5.16441000      1.45239500     -0.31526200
 6      4.92835200     -0.95545000     -0.20105400
 6      6.45034800      1.30375700     -0.83328000
 1      4.74706300      2.44361900     -0.15869200
 6      6.20767600     -1.09386800     -0.73589900
 1      4.34133700     -1.82563500      0.06092500
 6      6.97468100      0.02960200     -1.05351900
 1      7.03603400      2.18662200     -1.07219900
 1      6.61134700     -2.09001200     -0.89242600
 1      7.97281300     -0.08786400     -1.46468600
 6     -0.94094400      1.32327400     -1.94493300
 1     -0.62687200      2.36530100     -1.83099900
 1     -0.14022100      0.68056900     -1.57519400
 1     -1.06551200      1.12246100     -3.01414300


