%nprocshared=8
%mem=6GB
#p pddg opt freq=noraman scrf=(pcm,solvent=diethylether)

title

0 1
16      2.58585600     -0.68871600     -0.83051600
 8      0.93416800      2.96868500      1.68206300
 7     -0.18693800      2.34111600     -0.16308000
 7      2.35057700      0.47927600      1.54802900
 1      2.71420400      1.01301400      2.31067100
 7      4.53234800      0.18864200      0.79260700
 1      4.83769400      0.40943700      1.71594800
 6     -0.40588200      1.39134800     -1.29605800
 1      0.57374600      0.82143900     -1.47050700
 6     -0.69157900      2.24259900     -2.54465200
 1     -1.72549200      2.09890600     -2.93170500
 1     -0.04422200      1.92794800     -3.39040900
 6     -0.44933800      3.70225200     -2.16523000
 1     -1.32405900      4.33534700     -2.42703300
 1      0.39383200      4.13697700     -2.74158400
 6     -0.17787700      3.74855000     -0.66051800
 1     -0.95866900      4.32255800     -0.11020500
 1      0.77786700      4.28599900     -0.44823300
 6      0.55822500      2.02292900      0.98844900
 6      0.87810800      0.56596700      1.37703900
 1      0.54860300     -0.16252500      0.56057800
 6      3.17237100      0.00911900      0.52950500
 6      0.13745000      0.10167800      2.66064700
 6      0.36307700     -1.40336100      2.83863200
 1      1.40938800     -1.65370800      3.05267300
 1     -0.22763600     -1.78889500      3.68131700
 1      0.05974300     -1.97678500      1.95170300
 6      0.57355900      0.79959200      3.94366200
 1      0.45663600      1.88866100      3.89810400
 1     -0.04183200      0.45818200      4.78896000
 1      1.61220000      0.58562800      4.22707400
 6     -1.36055100      0.33037400      2.46843100
 1     -1.73803600     -0.14887800      1.55059900
 1     -1.93323100     -0.08694400      3.30812700
 1     -1.61931200      1.39555700      2.41420700
 6     -2.74389200     -4.28656000     -0.66556100
 6     -1.79955900     -3.30111700     -0.93391500
 6     -2.16174900     -1.95193300     -0.85982900
 6     -3.47815200     -1.59644500     -0.51817600
 6     -4.04944000     -3.94830300     -0.32152300
 6     -1.20004100     -0.91607000     -1.11113700
 6     -3.84471000     -0.21706200     -0.46159900
 6     -2.89480400      0.79708500     -0.74070300
 6     -1.52887900      0.40569200     -1.03689900
 6     -3.33370000      2.12599500     -0.72050600
 1     -2.65821800      2.96440500     -0.96089200
 6     -4.65049100      2.44413200     -0.40272600
 6     -5.57476800      1.45301700     -0.10204100
 1     -0.16331100     -1.24947200     -1.34592700
 1     -2.45490800     -5.34692100     -0.72568400
 1     -0.76662600     -3.57989300     -1.20279200
 1     -4.78895100     -4.73826400     -0.10947300
 1     -4.96220800      3.49991800     -0.38977500
 1     -6.61393400      1.71711200      0.15551600
 6     -4.42538800     -2.60431400     -0.24638400
 6     -5.17690900      0.11434400     -0.13669900
 6     -5.77131700     -2.23215500      0.10163900
 1     -6.49858200     -3.03144800      0.32117900
 6     -6.12908700     -0.92762400      0.15318900
 1     -7.15963100     -0.63529200      0.41653100
 6      5.56964400     -0.39688000     -0.01409800
 6      6.59775500     -1.09951800      0.63133200
 6      5.60038500     -0.20794000     -1.39901900
 6      7.64717900     -1.61570700     -0.11944000
 1      6.59942800     -1.24492000      1.72568000
 6      6.65987700     -0.73424300     -2.13302600
 1      4.78765800      0.32748200     -1.92339200
 6      7.67985300     -1.43658500     -1.49990900
 1      8.45472400     -2.16976100      0.38280400
 1      6.68567500     -0.59068500     -3.22395900
 1      8.51226600     -1.85060400     -2.08851700


