%nprocshared=8
%mem=6GB
#p b3lyp midix empiricaldispersion=gd3bj opt freq=noraman scrf=(pcm,solvent=diethylether)

title

0 1
16      2.05496600      0.20338600      1.53060800
 8     -1.14599700      0.28860300     -1.46530300
 7     -1.90296600      0.28023500      0.66487900
 7      1.27881100      1.41127600     -0.70014800
 1      1.26726900      1.51156700     -1.69407000
 7      3.17484700      0.07076100     -0.90368900
 1      3.31118400      0.48261500     -1.80175100
 6     -3.82317600     -1.75879600     -1.52081500
 1     -4.22903900     -0.94539700     -2.14395400
 6     -3.80990900     -3.04281000     -2.06181900
 1     -4.21042900     -3.20998600     -3.07286000
 6     -3.29018300     -4.10885500     -1.33745300
 6     -2.78360000     -3.88864900     -0.05980300
 1     -2.36836900     -4.72611300      0.52024200
 6     -2.80077800     -2.61116600      0.48740400
 1     -2.40913500     -2.45946600      1.50907700
 6     -3.31795400     -1.53314400     -0.24048200
 6     -3.31879600     -0.16443400      0.40761500
 6     -3.97237300     -0.24687700      1.81414300
 1     -4.48863800     -1.21491000      1.99296400
 1     -4.77851900      0.51003900      1.94111700
 6     -2.85939600     -0.02805300      2.83743000
 1     -2.51150000     -0.99156700      3.26973900
 1     -3.20387900      0.56607700      3.70773900
 6     -1.73436200      0.67750300      2.08727600
 1     -0.72165900      0.37147200      2.44923700
 1     -1.78642400      1.78564100      2.22497500
 6     -1.05657500      0.77728000     -0.34036600
 6      0.02513900      1.83419200     -0.02770600
 1      0.24681800      1.92296500      1.08921500
 6      2.17784300      0.56107300     -0.05608800
 6     -0.41636700      3.24430100     -0.51099700
 6      0.77580900      4.19999800     -0.45719700
 1      1.54378300      3.97163800     -1.20775800
 1      0.45729600      5.23325900     -0.65583100
 1      1.25883600      4.19834200      0.52877100
 6     -0.99437100      3.25891900     -1.92140900
 1     -1.94284000      2.70397200     -1.99125200
 1     -1.21328800      4.28783100     -2.23977300
 1     -0.31365600      2.83520400     -2.67008500
 6     -1.48318600      3.77936900      0.44593300
 1     -1.11950400      3.83447700      1.48186700
 1     -1.79066800      4.79571700      0.16360700
 1     -2.39278300      3.16181900      0.44260600
 1     -3.27764800     -5.11966200     -1.77075400
 6      4.33531100     -0.63281200     -0.42805500
 6      5.59213900     -0.24384700     -0.91536000
 6      4.21780300     -1.72523400      0.43706200
 6      6.72397800     -0.94947900     -0.52554700
 1      5.70429200      0.60624300     -1.61073300
 6      5.36460200     -2.41698200      0.81738000
 1      3.23625800     -2.03211200      0.84532000
 6      6.61385400     -2.03354800      0.34137500
 1      7.71148600     -0.64659700     -0.90528900
 1      5.27571100     -3.27490200      1.50111700
 1      7.51443900     -2.58599300      0.64843700
 6     -4.07512300      0.88703100     -0.41474400
 1     -3.60861100      1.11176000     -1.38634200
 1     -5.10285300      0.55950300     -0.62110700
 1     -4.16623400      1.84778800      0.11427100


