%nprocshared=8
%mem=6GB
#p pddg opt freq=noraman scrf=(pcm,solvent=diethylether)

title

0 1
16      2.15170000      0.00437200      1.47110400
 8     -0.51295000      1.60382600     -1.66655500
 7     -1.19459500      1.91931400      0.45452000
 7      2.16090200      1.39648500     -0.79552900
 1      2.23054600      1.45697400     -1.78980200
 7      3.02661700     -0.76749400     -0.93568400
 1      3.46667300     -0.51486700     -1.79330000
 6     -2.48513900      1.19859400      0.28398300
 1     -2.96370900      1.58164100     -0.66587300
 6     -3.28612400      1.60310900      1.53643500
 1     -3.98064100      0.80193500      1.87053100
 1     -3.95336000      2.46131600      1.30646900
 6     -2.25878800      1.96125800      2.61169000
 1     -2.18787500      1.16457000      3.38114700
 1     -2.55666700      2.87099600      3.17175900
 6     -0.91830700      2.15294100      1.89598700
 1     -0.13481300      1.44801300      2.28225900
 1     -0.50342300      3.18046500      2.02940400
 6     -0.19677100      1.94313700     -0.52595000
 6      1.24074600      2.38690900     -0.17876700
 1      1.43256800      2.38314700      0.94862500
 6      2.45114300      0.20886300     -0.12205800
 6      1.55647900      3.82803800     -0.65457000
 6      3.03172900      4.13274900     -0.38569600
 1      3.71114000      3.55816000     -1.02814200
 1      3.25177400      5.19229200     -0.57791300
 1      3.30882400      3.93229000      0.65790300
 6      1.27235500      4.08212500     -2.12892000
 1      0.21319400      3.95228900     -2.38415900
 1      1.52973600      5.11723400     -2.39604300
 1      1.85433900      3.43787400     -2.79988400
 6      0.72252400      4.80215500      0.18003600
 1      0.96088900      4.73105300      1.25121400
 1      0.91612400      5.84133900     -0.11915600
 1     -0.35692800      4.63486600      0.07290200
 6     -2.37843100     -0.30546900      0.19205100
 6     -3.51681400     -1.05467100     -0.24569100
 6     -1.21737300     -0.96819900      0.50636600
 6     -4.78226100     -0.45611800     -0.50034700
 6     -3.39106700     -2.44660700     -0.41844500
 6     -1.10399800     -2.36655100      0.32892600
 1     -0.31591600     -0.45217000      0.90343400
 6     -5.83718600     -1.21422200     -0.93661400
 1     -4.94364700      0.62232400     -0.33100100
 6     -4.49535100     -3.21479200     -0.87563300
 6     -2.16063100     -3.09855000     -0.13535800
 1     -0.12711100     -2.84237600      0.55415000
 6     -5.69388800     -2.60624400     -1.13567300
 1     -6.81247200     -0.74403300     -1.13385500
 1     -4.37373700     -4.30185500     -1.01665700
 1     -2.07433000     -4.18682900     -0.28978200
 1     -6.55393500     -3.19118000     -1.49420100
 6      3.47705800     -2.02867800     -0.40472900
 6      4.81529600     -2.39817000     -0.59050000
 6      2.57536800     -2.89872000      0.21659600
 6      5.24667600     -3.64131500     -0.14117000
 1      5.53252900     -1.72788200     -1.09469300
 6      3.02832700     -4.13738100      0.66166800
 1      1.50905600     -2.62342600      0.37903000
 6      4.35756500     -4.50937100      0.48652600
 1      6.29739200     -3.93672500     -0.28283000
 1      2.32472800     -4.82486800      1.15574600
 1      4.70616000     -5.49017700      0.84351000


