%nprocshared=8
%mem=20GB
#p b3lyp 6-31g* empiricaldispersion=gd3bj opt freq=noraman scrf=(pcm,solvent=diethylether)

title

0 1
16     -2.44734800      2.52190000      0.90246000
 8     -1.22737600     -1.48930400     -1.48542800
 7     -1.92885600     -1.84312200      0.64304400
 7     -2.15233100      1.00477000     -1.30114800
 1     -1.46502000      0.55277900     -1.92752500
 7     -0.48397900      2.51181000     -0.99690100
 1     -0.11345600      2.00788400     -1.81009900
 6     -0.84656500     -2.84501900      0.82914900
 1     -1.06107600     -3.70398200      0.17693000
 6     -1.04889500     -3.26704000      2.30653300
 1     -0.53657000     -2.56121000      2.97242300
 1     -0.65094100     -4.27025800      2.48912400
 6     -2.58373700     -3.17721400      2.47657000
 1     -2.90131900     -3.15502200      3.52472400
 1     -3.06460200     -4.03066400      1.97944000
 6     -2.94286300     -1.85583400      1.74053600
 1     -3.93923600     -1.91145800      1.29539500
 6     -2.02253200     -1.22845900     -0.55954800
 6     -3.01073100     -0.06233600     -0.75361900
 1     -3.41810000      0.30220700      0.18880400
 6     -1.64821900      2.00245000     -0.49582300
 6     -4.17818600     -0.37860700     -1.72996200
 6     -5.09475100      0.86117900     -1.77842900
 1     -4.52140300      1.73836700     -2.10673500
 1     -5.92297800      0.69283000     -2.48233200
 1     -5.51569900      1.07453200     -0.78475000
 6     -3.65561700     -0.68770400     -3.14825200
 1     -2.94347200     -1.51997100     -3.12809800
 1     -4.50098400     -0.94287400     -3.80346400
 1     -3.15051400      0.19357200     -3.56789500
 6     -4.96877000     -1.59039600     -1.19616000
 1     -5.39675900     -1.37509500     -0.20633200
 1     -5.79644500     -1.82565300     -1.88025000
 1     -4.32616600     -2.48043400     -1.11926100
 6      4.86504200     -3.56906800     -1.48268400
 6      3.56024000     -3.90386200     -1.12735900
 6      2.73095200     -2.97050500     -0.48788700
 6      3.23848600     -1.67274500     -0.20024900
 6      5.36733700     -2.29826900     -1.21109600
 6      1.37863000     -3.26965800     -0.13014900
 6      2.40677800     -0.72119200      0.45343600
 6      1.06382500     -1.05673300      0.81807700
 6      0.55791800     -2.37198900      0.48627800
 6      0.29758700     -0.07661900      1.46450300
 1     -0.72362300     -0.29218900      1.72317500
 6      0.80771900      1.18746500      1.74078800
 6      2.10851400      1.51921500      1.38648700
 1      0.99425000     -4.25524400     -0.39286000
 1      5.49505600     -4.30408900     -1.97834700
 1      3.16905900     -4.89566000     -1.34694500
 1      6.38599900     -2.03955200     -1.49462600
 1      0.15340600      1.92753400      2.19049900
 1      2.49402600      2.51725900      1.57989400
 6      4.57291300     -1.33468800     -0.57262500
 6      2.92186200      0.57969700      0.73940100
 6      5.05418700     -0.01333400     -0.28499900
 1      6.07054400      0.24032900     -0.58163100
 6      4.26344600      0.89939000      0.33999800
 1      4.62954800      1.90262900      0.55126800
 6      0.40713900      3.50060800     -0.52541400
 6      1.66746900      3.53933000     -1.14478700
 6      0.11570500      4.40759200      0.50074600
 6      2.62844800      4.45254100     -0.72892800
 1      1.89862900      2.82785300     -1.93507100
 6      1.09054400      5.31499100      0.91369200
 1     -0.85733600      4.35372700      0.96752200
 6      2.34921700      5.34356800      0.31127200
 1      3.60211000      4.46124600     -1.21280100
 1      0.85661900      6.00788400      1.71867600
 1      3.10237600      6.05380600      0.64266200
 6     -2.87219900     -0.65146600      2.70281100
 1     -1.99864700     -0.72442200      3.36461300
 1     -2.82688700      0.31008200      2.17602100
 1     -3.77302000     -0.65862900      3.33307200


