%nprocshared=8
%mem=3GB
#p b3lyp cc-pVTZ empiricaldispersion=gd3bj scrf=(pcm,solvent=diethylether)

title

0 1
16     -1.10308800     -1.61936000      1.75161200
 8      1.56806700      0.00555100     -1.65285100
 7      2.21605100      0.49679900      0.47006600
 7      0.08278100     -2.02126900     -0.63509900
 1      0.05878100     -1.79914800     -1.62714000
 7     -2.07948900     -1.31703900     -0.74899600
 1     -1.84779600     -1.13821500     -1.71979600
 6      0.91609100      3.77121300     -0.86579000
 1      1.81497600      4.25042100     -1.23926100
 6     -0.32002900      4.37079000     -1.11276000
 1     -0.36103200      5.30065000     -1.67364300
 6     -1.49559100      3.78042900     -0.64718000
 6     -1.42012500      2.58610900      0.07037200
 1     -2.32292100      2.10839100      0.43904300
 6     -0.18327400      1.98875300      0.31333400
 1     -0.15739000      1.05369600      0.86136000
 6      1.00476700      2.56842800     -0.15276200
 6      2.37289700      1.95037800      0.17036700
 6      2.90110100      2.49670100      1.52412800
 1      2.62975200      3.54620600      1.65942900
 1      3.99537200      2.42362000      1.53518200
 6      2.30355600      1.56453700      2.57729100
 1      1.25773900      1.82332800      2.77010500
 1      2.84138700      1.58833700      3.52851100
 6      2.38584500      0.19160500      1.90539300
 1      1.60387900     -0.48266400      2.25823800
 1      3.36261400     -0.27625200      2.07715100
 6      1.77527900     -0.35248600     -0.48548500
 6      1.42825000     -1.80243900     -0.09824500
 1      1.35158700     -1.92243100      0.97850300
 6     -1.03471200     -1.64943200      0.06199800
 6      2.44605200     -2.85608300     -0.61684200
 6      2.02656300     -4.22812500     -0.06364900
 1      1.01984400     -4.49457400     -0.40006800
 1      2.72049600     -5.00390300     -0.40635500
 1      2.02819100     -4.23000100      1.03249200
 6      2.49969100     -2.91649100     -2.15255600
 1      2.75771500     -1.94686900     -2.58440300
 1      3.25086100     -3.65070100     -2.46480800
 1      1.53972400     -3.23582900     -2.57448500
 6      3.83681300     -2.48758700     -0.07154500
 1      3.83460400     -2.43833500      1.02352400
 1      4.56966500     -3.24517200     -0.36926800
 1      4.18083000     -1.52109600     -0.45652300
 1     -2.45809800      4.24568800     -0.84096700
 6     -3.38590700     -0.90244700     -0.38099800
 6     -3.91270800      0.22874100     -1.01401200
 6     -4.16152700     -1.61838400      0.53576700
 6     -5.20910800      0.65077400     -0.72106100
 1     -3.29878100      0.78353000     -1.71781700
 6     -5.45104200     -1.18042300      0.83210200
 1     -3.75481400     -2.50280100      1.00836500
 6     -5.98043300     -0.04812400      0.20846400
 1     -5.60942800      1.53113800     -1.21505500
 1     -6.04853700     -1.73608300      1.54884400
 1     -6.98729400      0.28397500      0.44302400
 6      3.41487400      2.18176900     -0.93308200
 1      3.02677000      1.90207800     -1.91153000
 1      3.72446400      3.23121600     -0.94992900
 1      4.30238200      1.57847800     -0.71700000


