%nprocshared=8
%mem=6GB
#p pddg opt freq=noraman scrf=(pcm,solvent=diethylether)

title

0 1
16      1.87454100      0.90909400      0.51731400
 8     -0.28363200     -3.45397300     -1.03725200
 7     -1.66793800     -2.38479000      0.36863800
 7      1.52922400     -1.31047600     -0.91189200
 1      1.86832500     -1.99964700     -1.55138600
 7      3.73607100     -0.77074600     -0.42876900
 1      4.02548500     -1.36904300     -1.17205400
 6     -1.88440500     -1.42767500      1.51079500
 6     -2.88838200     -2.14620700      2.45792800
 1     -3.75763800     -1.50972300      2.73206300
 1     -2.42598400     -2.39049100      3.44107300
 6     -3.34440900     -3.41733800      1.74791800
 1     -4.34863700     -3.29029600      1.28810000
 1     -3.46220900     -4.26758500      2.44991400
 6     -2.28274000     -3.70660100      0.69322500
 1     -2.71365700     -4.16704200     -0.22434700
 1     -1.52701600     -4.43849500      1.06535200
 6     -0.60924400     -2.36581000     -0.56021400
 6      0.06678500     -1.05776900     -1.00925800
 1     -0.23250500     -0.19114100     -0.32456600
 6      2.39298300     -0.39359400     -0.32094800
 6     -0.35818900     -0.62329300     -2.43972800
 6      0.23973400      0.75717900     -2.72667400
 1      1.33636000      0.74424500     -2.77028900
 1     -0.11014100      1.14350800     -3.69366400
 1     -0.04215300      1.49583200     -1.96219400
 6      0.07865300     -1.57238800     -3.54936800
 1     -0.30788000     -2.58965400     -3.41339400
 1     -0.30185700     -1.22316800     -4.52027400
 1      1.16802600     -1.64162700     -3.66352200
 6     -1.87866600     -0.49204100     -2.48525100
 1     -2.25865000      0.16843700     -1.68895500
 1     -2.20875800     -0.06773700     -3.44340800
 1     -2.38547600     -1.46003500     -2.38168200
 6     -2.48244900      4.61724800      0.14837600
 6     -1.85609200      3.49952900      0.63438200
 6     -2.51169400      2.24027500      0.57360400
 6     -3.79394300      2.15469400      0.01063600
 6     -4.42622700      3.32438900     -0.48687100
 6     -3.77804500      4.52967100     -0.41558200
 1     -0.84770800      1.19067600      1.48254700
 1     -1.98286200      5.59676600      0.19068800
 1     -0.84359900      3.56002200      1.06895600
 6     -1.87225000      1.07196200      1.07051300
 6     -4.44079100      0.89262500     -0.05053700
 1     -5.43453400      3.24649500     -0.92565800
 1     -4.25776500      5.44330900     -0.79748300
 6     -3.81329000     -0.22289200      0.43429100
 6     -2.50761900     -0.14435600      0.99741600
 1     -5.45024400      0.82561300     -0.48903300
 1     -4.33327000     -1.19640900      0.38971700
 6      4.81216800      0.01291200      0.11502300
 6      5.91742800      0.28788800     -0.70324000
 6      4.79806300      0.42633800      1.45097400
 6      7.00064200      0.98133700     -0.17637700
 1      5.95236500     -0.04198400     -1.75622300
 6      5.89217500      1.12121600      1.95863300
 1      3.92407400      0.23686300      2.10105500
 6      6.99022600      1.39994900      1.15146600
 1      7.86938800      1.20042100     -0.81555000
 1      5.88324300      1.45122200      3.00860700
 1      7.84992000      1.95113600      1.56113800
 6     -0.59464900     -1.19353100      2.30514300
 1     -0.20078600     -2.12274000      2.74164700
 1      0.23677900     -0.74842100      1.73258300
 1     -0.78037700     -0.51325700      3.14775600


