%nprocshared=8
%mem=6GB
#p pddg opt freq=noraman scrf=(pcm,solvent=diethylether)

title

0 1
16     -1.74646500     -0.88385400     -0.81585800
 8      1.20344400      1.99883000      2.20658600
 7      2.36258800      0.21360100      1.49981000
 7     -0.98801200      1.21890200      0.63062500
 1     -1.19304000      2.08169000      1.09156500
 7     -3.25125100      0.70518900      0.73035400
 1     -3.42642700      1.62692300      1.06778400
 6      1.92415100     -1.67908700     -1.46791400
 1      0.90420500     -2.04465400     -1.23907700
 6      2.32163000     -1.66640600     -2.80322400
 1      1.62958200     -2.03313100     -3.57664800
 6      3.57729600     -1.19110700     -3.16196600
 6      4.44490200     -0.73194100     -2.17509900
 1      5.44268800     -0.35787900     -2.44911700
 6      4.05554400     -0.74668500     -0.84067400
 1      4.76425000     -0.38929200     -0.07265000
 6      2.78666000     -1.21245600     -0.47512400
 6      2.41164100     -1.20383100      0.99354400
 6      3.53988000     -1.88880100      1.81818800
 1      4.27453500     -2.42813100      1.18170500
 1      3.13927700     -2.68557800      2.48495400
 6      4.22357200     -0.79778300      2.63646600
 1      5.17842600     -0.47429200      2.16777100
 1      4.51179900     -1.15275500      3.64664900
 6      3.22437000      0.35066000      2.71177400
 1      3.72485500      1.34524600      2.71973100
 1      2.62825100      0.31185600      3.65419200
 6      1.31658700      1.13943600      1.33057600
 6      0.39700200      1.12715500      0.09608400
 1      0.52932900      0.15913600     -0.50007500
 6     -2.00748300      0.39116500      0.17158800
 6      0.71595800      2.27525600     -0.90178500
 6     -0.15753800      2.09452600     -2.14663900
 1     -1.22735500      2.22151300     -1.93706900
 1      0.10203000      2.83091900     -2.91934400
 1     -0.03485500      1.09756900     -2.59389000
 6      0.48246300      3.67865500     -0.35555300
 1      1.08221200      3.89010800      0.53787300
 1      0.76760900      4.43094200     -1.10537300
 1     -0.56692400      3.88471000     -0.10935900
 6      2.17534900      2.16136300     -1.33601000
 1      2.41141800      1.15827100     -1.72780600
 1      2.40736800      2.88338900     -2.13089800
 1      2.87356900      2.36658500     -0.51448300
 1      3.88460700     -1.17969800     -4.21817000
 6     -4.45388500     -0.01098700      0.39997400
 6     -5.59139500      0.72398000      0.03641500
 6     -4.51442100     -1.40344700      0.51276700
 6     -6.78336400      0.05527700     -0.21632800
 1     -5.56535500      1.82448500     -0.04533600
 6     -5.71739800     -2.05423800      0.25397300
 1     -3.61968600     -1.99691500      0.77493400
 6     -6.84884000     -1.33140700     -0.10969700
 1     -7.67829100      0.62784500     -0.50350200
 1     -5.76845100     -3.15041700      0.33842100
 1     -7.79511600     -1.85448700     -0.31372000
 6      1.10962500     -1.95669800      1.28728200
 1      0.89676300     -2.01600100      2.36445300
 1      0.20417200     -1.53295400      0.82050000
 1      1.17733100     -2.99341500      0.92979500


