%nprocshared=8
%mem=6GB
#p pddg opt freq=noraman scrf=(pcm,solvent=diethylether)

title

0 1
16      1.79916600      0.98161200     -0.18796300
 8      0.35726800     -2.86556600      1.63251800
 7     -1.09810400     -1.13564400      1.62376200
 7      1.76969700     -1.65627500     -0.52728600
 1      2.18150100     -2.55700700     -0.39910000
 7      3.87298000     -0.71686300     -0.18031900
 1      4.26342300     -1.58504200     -0.47701900
 6     -1.47190200      0.21918200      1.11988800
 1     -0.72392700      0.55004900      0.31120000
 6     -1.37843600      1.13096800      2.35519600
 1     -2.10129800      1.97410300      2.31878400
 1     -0.38102500      1.62336200      2.38646200
 6     -1.60173400      0.22771300      3.56530200
 1     -2.63604200      0.32785700      3.95485200
 1     -0.94942900      0.51689800      4.41433600
 6     -1.32389100     -1.20585400      3.09585500
 1     -2.19283500     -1.87903700      3.27776900
 1     -0.47333500     -1.65668100      3.65873600
 6     -0.12466800     -1.93019800      0.99356900
 6      0.28775100     -1.64190600     -0.46441900
 1     -0.08333900     -0.59899800     -0.78437300
 6      2.50064400     -0.48968500     -0.29531500
 6     -0.33062700     -2.64622600     -1.47087000
 6      0.06561200     -2.22878300     -2.88918800
 1      1.13794100     -2.35297100     -3.08558700
 1     -0.45777000     -2.84075300     -3.63704100
 1     -0.19032300     -1.18151200     -3.09859600
 6      0.08901400     -4.09569600     -1.26121900
 1     -0.16408900     -4.46943800     -0.26172000
 1     -0.42945900     -4.74933900     -1.97766900
 1      1.16112100     -4.26843000     -1.42039100
 6     -1.85290400     -2.56185500     -1.36481500
 1     -2.22010300     -1.53277700     -1.49625800
 1     -2.33659100     -3.18101800     -2.13245000
 1     -2.23494000     -2.90835800     -0.39329200
 6     -2.85957300      0.26554400      0.52786900
 6     -3.25557900      1.42619400     -0.21120500
 6     -3.74676800     -0.77309100      0.68215500
 6     -2.41682100      2.56487300     -0.37200200
 6     -4.53309600      1.45245100     -0.80311800
 6     -5.03419100     -0.72536100      0.09764500
 1     -3.49399700     -1.68319500      1.25619800
 6     -2.83583000      3.64118900     -1.10939600
 1     -1.42151400      2.61340200      0.10442300
 6     -4.94848100      2.57711700     -1.56582400
 6     -5.42354000      0.35790300     -0.63992500
 1     -5.71584200     -1.57709300      0.24263100
 6     -4.11078800      3.64881000     -1.71966100
 1     -2.17920200      4.51604900     -1.23204700
 1     -5.94951400      2.57425900     -2.02885600
 1     -6.42175900      0.39622300     -1.10693400
 1     -4.42047600      4.52292200     -2.31173400
 6      4.83980700      0.34694100     -0.12913900
 6      5.94683200      0.28213600     -0.98756200
 6      4.72445000      1.38144800      0.80452600
 6      6.93002400      1.26120000     -0.90743300
 1      6.06041200     -0.53440700     -1.72181600
 6      5.71941500      2.35308800      0.86741500
 1      3.84714600      1.45499500      1.47345200
 6      6.81834900      2.29688500      0.01649900
 1      7.79969200      1.21533600     -1.58041300
 1      5.63117400      3.17073400      1.59894100
 1      7.59916900      3.07015000      0.07270600


