%nprocshared=8
%mem=6GB
#p pddg opt freq=noraman scrf=(pcm,solvent=diethylether)

title

0 1
16     -0.91922600     -0.91105300      1.58813100
 8      1.72667700     -0.08635900     -1.78393700
 7      2.39256000      0.64021300      0.23739400
 7      0.16134900     -2.08745700     -0.53991500
 1      0.14565500     -2.32941400     -1.50879100
 7     -2.10965200     -1.56620100     -0.71481400
 1     -2.16437500     -2.16966300     -1.50565900
 6      0.98262000      3.48376100     -1.58615300
 1      1.81509800      3.60979500     -2.29853400
 6     -0.23780100      4.09934800     -1.84711800
 1     -0.35857300      4.71130300     -2.75343400
 6     -1.30567900      3.93691400     -0.96967700
 6     -1.14774400      3.16336000      0.17614900
 1     -1.99212400      3.02641800      0.87060600
 6      0.07473300      2.55712700      0.45085800
 1      0.18177900      1.95385800      1.37304800
 6      1.14116900      2.70759700     -0.43622500
 6      2.48275600      2.07079200     -0.17107300
 1      3.12521600      2.13044100     -1.09995400
 6      3.17467800      2.75070800      1.02383700
 1      2.84494000      3.80044700      1.16987800
 1      4.26933800      2.82458700      0.85133400
 6      2.86336700      1.88511600      2.24589100
 1      2.04159200      2.33233800      2.84616400
 1      3.72792600      1.82034900      2.93620900
 6      2.45410200      0.50814600      1.71697200
 1      1.46720100      0.18463400      2.14910700
 1      3.18314600     -0.29639000      1.97490100
 6      1.87396200     -0.35683400     -0.59106900
 6      1.51072000     -1.74466600     -0.02066700
 1      1.44727500     -1.74395600      1.12002700
 6     -0.96415800     -1.52246300      0.07426600
 6      2.55782200     -2.83083600     -0.37258200
 6      2.06768400     -4.18511100      0.14434600
 1      1.19299200     -4.55889200     -0.40305900
 1      2.84911200     -4.95012100      0.03497100
 1      1.80320100     -4.14745100      1.20950300
 6      2.85872500     -2.96362300     -1.85931200
 1      3.27934800     -2.04636000     -2.28969800
 1      3.60240000     -3.75523000     -2.03060500
 1      1.97890700     -3.23476700     -2.45630700
 6      3.85714600     -2.49391300      0.36266900
 1      3.71513100     -2.46216600      1.45266500
 1      4.62853200     -3.25031700      0.16382100
 1      4.27474300     -1.52487800      0.06079000
 1     -2.27220000      4.41715000     -1.18234700
 6     -3.38490000     -1.08306400     -0.25820700
 6     -4.50760100     -1.90668500     -0.41453600
 6     -3.51384800      0.20935200      0.26124700
 6     -5.75833100     -1.42973800     -0.03867500
 1     -4.42245800     -2.92218000     -0.83858700
 6     -4.77479800      0.66616500      0.63285100
 1     -2.63282100      0.86831200      0.40127000
 6     -5.89390800     -0.14759500      0.48660700
 1     -6.64380200     -2.07239900     -0.15738900
 1     -4.88073100      1.68127700      1.04515600
 1     -6.88633800      0.22196700      0.78525800


