%nprocshared=8
%mem=20GB
#p b3lyp 6-31g* empiricaldispersion=gd3bj opt freq=noraman scrf=(pcm,solvent=diethylether)

title

0 1
16      1.57550900     -1.08740800     -0.89487800
 8      0.42255000      2.98255600      1.45813800
 7     -0.73667300      2.36557200     -0.39961500
 7      1.49658300      0.38426700      1.35818700
 1      1.93508600      1.15905500      1.87493300
 7      3.60023600     -0.09926700      0.65866200
 1      3.82317800      0.45245400      1.49524500
 6     -1.00590600      1.37850000     -1.48753300
 1     -0.14353000      0.70948000     -1.57999200
 6     -1.13003500      2.28346200     -2.75211500
 1     -1.86952700      1.88677700     -3.45553300
 1     -0.15605600      2.32611700     -3.25733400
 6     -1.50581500      3.68746500     -2.21106700
 1     -2.58806700      3.76367800     -2.05223600
 1     -1.20384600      4.48826700     -2.89514600
 6     -0.75828100      3.76859100     -0.86545100
 1     -1.25573300      4.40173800     -0.12299400
 1      0.27098700      4.13840400     -0.98883400
 6     -0.08199300      2.08537200      0.75659700
 6      0.05817500      0.61462300      1.17919700
 1     -0.26739900     -0.06766400      0.39939600
 6      2.26492500     -0.23508800      0.40483200
 6     -0.71893200      0.27456600      2.48780800
 6     -0.67948300     -1.25818700      2.66174500
 1      0.36079800     -1.61149800      2.68435400
 1     -1.16993400     -1.54407900      3.60397500
 1     -1.20360100     -1.75371100      1.83130700
 6     -0.07882100      0.95980200      3.71245200
 1     -0.00606000      2.03963500      3.54080400
 1     -0.69063000      0.76661300      4.60546400
 1      0.92874500      0.55982400      3.89679700
 6     -2.18434300      0.73515500      2.34633200
 1     -2.66946100      0.25732700      1.48835600
 1     -2.74063700      0.46524400      3.25583800
 1     -2.24537200      1.82556700      2.21867600
 6     -4.18927600     -3.81060500     -0.25303700
 6     -3.10631200     -3.04801700     -0.62697400
 6     -3.22053700     -1.63865700     -0.74943500
 6     -4.47874100     -1.01833600     -0.47575000
 6     -5.57751700     -1.83131200     -0.09746700
 6     -5.43777000     -3.19637400      0.01249100
 1     -1.15250100     -1.29485200     -1.29295500
 1     -4.09197900     -4.88967000     -0.15952800
 1     -2.14351600     -3.51222000     -0.83383000
 6     -2.11807400     -0.82442500     -1.11311300
 6     -4.57603300      0.39520500     -0.57872900
 1     -6.53431200     -1.35406300      0.10855100
 1     -6.28573700     -3.81087900      0.30574100
 6     -3.48306300      1.15618800     -0.91418300
 6     -2.23151800      0.54590500     -1.18687700
 1     -5.53287500      0.86891400     -0.36516100
 1     -3.56656200      2.23847300     -0.94648200
 6      4.75399100     -0.59964400      0.01130200
 6      5.98634200     -0.12812800      0.49571700
 6      4.73908500     -1.52600100     -1.03955900
 6      7.17945300     -0.57190100     -0.06254500
 1      6.00205600      0.59084900      1.31332600
 6      5.94256400     -1.96083500     -1.59224600
 1      3.78061400     -1.87269800     -1.39743800
 6      7.16597900     -1.49215500     -1.11374300
 1      8.12333300     -0.19572800      0.32477500
 1      5.91600600     -2.67974900     -2.40798300
 1      8.09860100     -1.83852800     -1.55168200


