%nprocshared=8
%mem=3GB
#p b3lyp cc-pVTZ empiricaldispersion=gd3bj scrf=(pcm,solvent=diethylether)

title

0 1
16      1.80728500      1.02077200     -1.17280300
 8     -0.13664900     -3.33397600      1.31203100
 7     -1.55136200     -1.58521700      1.45663500
 7      1.55468700     -1.34392400      0.08867100
 1      1.93998200     -2.04980400      0.70656400
 7      3.58226800     -0.37068200      0.32671800
 1      3.85395400     -1.29081400      0.65398600
 6     -1.85142200     -0.11327800      1.47048900
 6     -2.71686100      0.00292800      2.76111600
 1     -3.41045100      0.84373400      2.70086100
 1     -2.05405700      0.16811200      3.61897000
 6     -3.40291400     -1.35416900      2.89217400
 1     -4.23278700     -1.43573700      2.18216500
 1     -3.79057000     -1.54337100      3.89646800
 6     -2.27946500     -2.31264300      2.51356500
 1     -2.61944000     -3.27756000      2.12923800
 1     -1.61240800     -2.51073100      3.36186600
 6     -0.51020800     -2.23855600      0.87280600
 6      0.20054100     -1.65454500     -0.36493900
 1     -0.26452100     -0.72601400     -0.69120000
 6      2.32707400     -0.27450700     -0.22039400
 6      0.20977600     -2.66150300     -1.57815300
 6      0.64847800     -1.89637100     -2.83896500
 1      1.65648800     -1.48757500     -2.73339200
 1      0.64300200     -2.57584300     -3.69956800
 1     -0.02716800     -1.06252000     -3.05501200
 6      1.18627000     -3.82939800     -1.35083600
 1      0.91103100     -4.41754400     -0.47420100
 1      1.17811400     -4.48214700     -2.23115000
 1      2.21264100     -3.46832900     -1.22271100
 6     -1.19975500     -3.22569500     -1.82078700
 1     -1.90367900     -2.43492700     -2.09208900
 1     -1.16703200     -3.93811700     -2.65266400
 1     -1.58448800     -3.75790700     -0.94474500
 6     -2.69119400      0.29080500      0.24291600
 6     -3.01830700      1.66114900     -0.05953400
 6     -3.20295400     -0.69936800     -0.57119200
 6     -2.68844000      2.77150400      0.76808400
 6     -3.76561400      1.94335200     -1.25674700
 6     -3.95862600     -0.41880300     -1.73193000
 1     -3.00447300     -1.73125700     -0.31917300
 6     -3.02238600      4.06246400      0.42166900
 1     -2.18181200      2.61298200      1.70767900
 6     -4.07864000      3.28650000     -1.59491100
 6     -4.21324500      0.88095200     -2.08438400
 1     -4.32124800     -1.24093400     -2.34212600
 6     -3.71191400      4.33161800     -0.78065500
 1     -2.75454500      4.87978100      1.08500500
 1     -4.63014800      3.46924200     -2.51355200
 1     -4.77447400      1.11895600     -2.98396200
 1     -3.96130100      5.35392500     -1.04902200
 6      4.64442000      0.56572300      0.29362100
 6      5.93711500      0.07881400      0.06811700
 6      4.44839900      1.92664000      0.55485300
 6      7.02714500      0.94751700      0.09334200
 1      6.08358700     -0.97911600     -0.13389800
 6      5.54250000      2.78968700      0.56075900
 1      3.45044400      2.29725300      0.74753300
 6      6.83381400      2.30872900      0.33181500
 1      8.02542600      0.55794000     -0.08330400
 1      5.38264000      3.84567100      0.75850600
 1      7.68084900      2.98805700      0.34313900
 6     -0.53528100      0.67901400      1.63933900
 1      0.17282200      0.07303500      2.21100100
 1     -0.07578600      0.95193000      0.68905000
 1     -0.69292700      1.59648500      2.20676100


