%nprocshared=8
%mem=20GB
#p b3lyp 6-31g* empiricaldispersion=gd3bj opt freq=noraman scrf=(pcm,solvent=diethylether)

title

0 1
16      1.56553400     -1.36974400     -0.79545200
 8     -0.75547700      2.43650200      1.53824200
 7     -2.10099200      1.64751800     -0.11484200
 7      0.97675100      0.40556000      1.12190000
 1      1.14630700      1.31744700      1.56898800
 7      3.15362600      0.45138600      0.49559800
 1      3.17115400      1.19493700      1.20287800
 6     -2.08727100     -1.67928900     -1.35525300
 1     -1.06186600     -1.62804500     -1.70591000
 6     -2.63450900     -2.93432900     -1.07368100
 1     -2.03464000     -3.82669000     -1.23632000
 6     -3.93614900     -3.04241500     -0.58792500
 6     -4.68808400     -1.88302500     -0.38029200
 1     -5.70339600     -1.95213200      0.00342900
 6     -4.13433900     -0.63498100     -0.65057700
 1     -4.71970500      0.25884900     -0.45617500
 6     -2.82757300     -0.51385500     -1.14068900
 6     -2.25570700      0.87723100     -1.40309000
 6     -3.29039100      1.76942600     -2.19685700
 1     -4.05686000      1.14955800     -2.67177300
 1     -2.75386500      2.31397100     -2.98435500
 6     -3.86980600      2.77804400     -1.17756400
 1     -4.72650800      2.35118100     -0.64188800
 1     -4.19097700      3.71024800     -1.65580000
 6     -2.70104800      2.99625500     -0.20697900
 1     -2.99972400      3.33063000      0.79036600
 1     -1.97173200      3.72030100     -0.60414600
 6     -1.11775300      1.48698500      0.81458000
 6     -0.45708300      0.11921000      1.03408100
 1     -0.60884000     -0.57556800      0.21336900
 6      1.92652500     -0.12478700      0.30226600
 6     -0.95003900     -0.57153200      2.35401900
 6     -0.32663200     -1.98238900      2.39726800
 1      0.76935400     -1.92182100      2.37105300
 1     -0.63009700     -2.49584400      3.32187100
 1     -0.66188600     -2.57638900      1.53576700
 6     -0.50772000      0.22792200      3.59564800
 1     -0.88332700      1.25581500      3.54481500
 1     -0.89338400     -0.26059100      4.50222300
 1      0.58877800      0.25836700      3.66168800
 6     -2.48542000     -0.69815300      2.33883900
 1     -2.82348000     -1.31789000      1.50199100
 1     -2.81921700     -1.16807900      3.27578100
 1     -2.96792100      0.28562900      2.25533700
 1     -4.36203300     -4.01874700     -0.36946100
 6      4.42709800      0.19496600     -0.06119700
 6      5.45564400      1.07694400      0.31369900
 6      4.71876600     -0.86898200     -0.92542100
 6      6.74746100      0.89979600     -0.16814100
 1      5.23434200      1.90426500      0.98619600
 6      6.01766700     -1.03390400     -1.40299100
 1      3.91213200     -1.53254000     -1.20147400
 6      7.03831700     -0.15813800     -1.03323300
 1      7.52971400      1.59257400      0.13305200
 1      6.22869600     -1.86424900     -2.07316900
 1      8.04799000     -0.29616300     -1.41155800
 6     -0.92395400      0.87124400     -2.18247600
 1     -0.57167500      1.90709700     -2.28108800
 1     -0.13638500      0.27793500     -1.70637000
 1     -1.08935600      0.46511400     -3.19082200


