%nprocshared=8
%mem=6GB
#p b3lyp midix empiricaldispersion=gd3bj opt freq=noraman scrf=(pcm,solvent=diethylether)

title

0 1
16     -2.33074400      0.65418700     -0.81626800
 8     -0.49410000     -2.97837200      1.62220100
 7      0.59609400     -2.24464900     -0.20149500
 7     -2.05264800     -0.57160600      1.52875200
 1     -2.39439400     -1.14210900      2.27482600
 7     -4.24134800     -0.35848400      0.76965700
 1     -4.54125100     -0.61272800      1.68606600
 6      0.77219100     -1.25592400     -1.30815700
 1     -0.23626000     -0.73674200     -1.47620000
 6      1.11077700     -2.05831900     -2.57579400
 1      2.13834300     -1.85052300     -2.95039900
 1      0.45374900     -1.75606200     -3.41861400
 6      0.94260400     -3.53797700     -2.23578100
 1      1.85192600     -4.11711700     -2.50444100
 1      0.12876400     -4.00157800     -2.83143200
 6      0.66075500     -3.63725300     -0.73555200
 1      1.46405000     -4.18672700     -0.19276600
 1     -0.26951700     -4.22566000     -0.54652700
 6     -0.17036900     -1.99626600      0.95317300
 6     -0.57604800     -0.56968400      1.37250100
 1     -0.27992600      0.19581100      0.57699600
 6     -2.88973800     -0.10843800      0.52044800
 6      0.12390800     -0.09423600      2.67457800
 6     -0.19750000      1.38839600      2.88940900
 1     -1.25812200      1.56614300      3.10581400
 1      0.36533100      1.78946700      3.74384200
 1      0.06984700      2.00239200      2.01833400
 6     -0.27668100     -0.85132100      3.93540400
 1     -0.08586300     -1.92863700      3.86522600
 1      0.30619600     -0.49030500      4.79548000
 1     -1.33011400     -0.71509300      4.21198100
 6      1.63460300     -0.22422300      2.48972800
 1      1.98809900      0.29776700      1.58569400
 1      2.17424000      0.20852400      3.34334600
 1      1.95909000     -1.26992200      2.41411300
 6      2.72993100      4.53570900     -0.57116800
 6      1.87025200      3.49807100     -0.85388800
 6      2.33366900      2.16491400     -0.79274000
 6      3.66261900      1.89681100     -0.44946500
 6      4.06586100      4.27109700     -0.21981500
 6      1.43270500      1.08748300     -1.06754600
 6      4.11048600      0.52516500     -0.41567100
 6      3.21906000     -0.52363700     -0.71944500
 6      1.83732100     -0.21601800     -1.01715900
 6      3.72553300     -1.84328800     -0.72406300
 1      3.08849600     -2.70406000     -0.98725200
 6      5.04103400     -2.10421800     -0.40962700
 6      5.91484700     -1.05728000     -0.08093300
 1      0.37892200      1.36337800     -1.30222000
 1      2.37737700      5.57701900     -0.61788900
 1      0.82028800      3.69873100     -1.12710600
 1      4.74253200      5.10901700      0.00579400
 1      5.41356000     -3.13985400     -0.41605200
 1      6.96201700     -1.27576400      0.17634700
 6      4.52753000      2.97523100     -0.15887200
 6      5.45489400      0.23918300     -0.09001700
 6     -5.29900600      0.19963800     -0.03014100
 6     -6.35630900      0.84891100      0.62366300
 6     -5.31781500      0.03383800     -1.41825800
 6     -7.42416900      1.33421100     -0.12177100
 1     -6.36590000      0.97590500      1.72025000
 6     -6.39622700      0.52828200     -2.14677600
 1     -4.48127900     -0.45702400     -1.94833800
 6     -7.44608300      1.17684900     -1.50508900
 1     -8.25498700      1.84625700      0.38703200
 1     -6.41324100      0.40250500     -3.24006700
 1     -8.29353800      1.56577400     -2.08932700
 1      5.58160200      2.76975900      0.11653100
 1      6.14617700      1.07035800      0.15818000


