%nprocshared=8
%mem=6GB
#p b3lyp midix empiricaldispersion=gd3bj opt freq=noraman scrf=(pcm,solvent=diethylether)

title

0 1
16     -2.41239100      0.90421600     -0.47296800
 8     -0.16962800     -3.43805900      0.93852100
 7      1.10374300     -2.36491800     -0.55576600
 7     -1.98756300     -1.31187400      0.94205000
 1     -2.29393500     -1.99743500      1.60145100
 7     -4.21672000     -0.79746600      0.54244300
 1     -4.47058100     -1.40286500      1.29303300
 6      1.35989200     -1.31650700     -1.60103200
 6      2.33415000     -1.96570400     -2.62187600
 1      3.35661500     -1.52743400     -2.59417100
 1      2.01572000     -1.77638500     -3.67229800
 6      2.37393800     -3.46241500     -2.32236300
 1      3.41841900     -3.81429100     -2.17937000
 1      1.99175800     -4.05995200     -3.17613900
 6      1.54105200     -3.70159800     -1.06378800
 1      2.12869800     -4.21176600     -0.26613700
 1      0.67923500     -4.37884500     -1.27736600
 6      0.12815300     -2.34222800      0.45840900
 6     -0.52296100     -1.04746000      0.97822800
 1     -0.26860400     -0.15614900      0.30706200
 6     -2.88369000     -0.40530300      0.38361300
 6     -0.03850800     -0.65041700      2.40050000
 6     -0.76756400      0.62723900      2.82685600
 1     -1.83987900      0.47189700      3.00031300
 1     -0.35540500      1.01747300      3.76765400
 1     -0.66976300      1.42395000      2.07523200
 6     -0.26004100     -1.70762400      3.47480600
 1      0.29316800     -2.63421300      3.27883900
 1      0.09445700     -1.34013000      4.44895900
 1     -1.31433400     -1.97503700      3.61736200
 6      1.45247300     -0.32876800      2.33627600
 1      1.66208100      0.49258800      1.63123700
 1      1.83176000     -0.01464300      3.31804900
 1      2.06154900     -1.18538600      2.01581200
 6      1.74695300      4.76345600     -0.45602500
 6      1.18274200      3.56762100     -0.83992300
 6      1.91188900      2.36583100     -0.69252200
 6      3.19590800      2.38822700     -0.14322800
 6      3.04564500      4.79187000      0.08268300
 6      1.33313600      1.12819700     -1.12331400
 6      3.89437600      1.13755400      0.03017100
 6      3.30095500     -0.07638500     -0.37399600
 6      1.99356300     -0.06087600     -1.01316300
 6      4.01423700     -1.26834700     -0.10360300
 1      3.61612900     -2.26278600     -0.36411300
 6      5.25303800     -1.24808800      0.49875900
 6      5.84796400     -0.03212900      0.86268300
 1      0.30207000      1.21886200     -1.52718100
 1      1.18538600      5.70304500     -0.56866200
 1      0.16149300      3.54127600     -1.25845400
 1      3.48763800      5.75438300      0.38119300
 1      5.78369000     -2.19189200      0.69713000
 1      6.84265000     -0.02322800      1.33270500
 6      3.75995900      3.62527100      0.24022400
 6      5.17242000      1.14330100      0.63219500
 6     -5.32323600     -0.03058800      0.03756900
 6     -6.40913100      0.21378900      0.89095800
 6     -5.35725200      0.39672700     -1.29363200
 6     -7.52107500      0.89046900      0.40380300
 1     -6.40638100     -0.12694700      1.94104700
 6     -6.47964600      1.07441000     -1.76123200
 1     -4.49932800      0.23187200     -1.97137700
 6     -7.55861700      1.32263200     -0.91921200
 1     -8.37457200      1.08541900      1.07074300
 1     -6.50839500      1.41512100     -2.80741800
 1     -8.44096400      1.86035200     -1.29738500
 1      4.78097600      3.64930400      0.67178600
 1      5.63427200      2.10773700      0.92791500
 6      0.05579400     -1.05335300     -2.37934600
 1     -0.30744600     -1.96728200     -2.87281500
 1     -0.78737100     -0.67754200     -1.77454400
 1      0.20918100     -0.32508200     -3.18875000


