%nprocshared=8
%mem=3GB
#p b3lyp cc-pVTZ empiricaldispersion=gd3bj scrf=(pcm,solvent=diethylether)

title

0 1
16     -1.52797400      0.19543200     -1.47715500
 8      1.00129000     -0.32545300      2.93402300
 7      1.78554900     -1.32707700      1.06392600
 7     -0.91839800      0.71958400      1.08995400
 1     -1.17352500      0.70931000      2.07147800
 7     -3.09812000      0.20402900      0.72623200
 1     -3.13665100      0.14206500      1.73746400
 6      2.46405400     -0.02814300     -2.28837500
 1      1.45027500     -0.14579900     -2.66187400
 6      3.36875500      0.79066500     -2.96725200
 1      3.05862900      1.29923100     -3.87567900
 6      4.66254600      0.96197300     -2.47366500
 6      5.04306700      0.31565400     -1.29471600
 1      6.04448800      0.45406300     -0.89691300
 6      4.13509000     -0.49437600     -0.61474900
 1      4.42779500     -0.95489700      0.32317700
 6      2.83787000     -0.68063200     -1.10864300
 6      1.82602600     -1.55925000     -0.39867400
 1      0.84014700     -1.36034300     -0.82577700
 6      2.13116300     -3.07342200     -0.48294100
 1      2.65744000     -3.32837600     -1.40555700
 1      1.18526000     -3.62605500     -0.46606700
 6      2.93917500     -3.37613100      0.78699500
 1      3.99255100     -3.11685100      0.64235600
 1      2.89455000     -4.42974400      1.07459200
 6      2.30066700     -2.46628400      1.84157900
 1      3.00228900     -2.11629400      2.60336500
 1      1.46914300     -2.95799900      2.36106300
 6      1.14095400     -0.32465900      1.70387800
 6      0.52050200      0.79848800      0.85793900
 1      0.66844600      0.61849400     -0.20276300
 6     -1.85913000      0.38155900      0.17487800
 6      1.07900100      2.22211500      1.17100800
 6      0.51296200      3.18009500      0.10871800
 1     -0.58179700      3.18657000      0.12424600
 1      0.86248600      4.20158900      0.29782700
 1      0.83483600      2.88806000     -0.89689500
 6      0.67265300      2.71498700      2.56973400
 1      1.03030900      2.03956400      3.34931900
 1      1.09580500      3.71097400      2.74310800
 1     -0.41613200      2.80456300      2.66110100
 6      2.61159200      2.19587300      1.06036500
 1      2.93657700      1.89247000      0.06170100
 1      3.01232700      3.19664900      1.25743700
 1      3.05802400      1.50941900      1.78815900
 1      5.36730300      1.60160900     -2.99716800
 6     -4.32690600     -0.08477500      0.07862300
 6     -5.15149600     -1.06196900      0.64618500
 6     -4.75875100      0.62687500     -1.04581200
 6     -6.39905700     -1.33501500      0.08634400
 1     -4.80918700     -1.61027400      1.51976600
 6     -5.99945400      0.33450200     -1.60887100
 1     -4.12676300      1.39674100     -1.46868400
 6     -6.82447600     -0.64366800     -1.04857500
 1     -7.03183600     -2.09537700      0.53455000
 1     -6.32747000      0.88617200     -2.48504100
 1     -7.79212100     -0.86136000     -1.49060700


