%nprocshared=8
%mem=20GB
#p b3lyp 6-31g* empiricaldispersion=gd3bj opt freq=noraman scrf=(pcm,solvent=diethylether)

title

0 1
16      0.99992000     -2.17323600      1.70537700
 8      1.55375100      0.77493000     -1.56375300
 7      2.08263100      1.42362500      0.56112600
 7      1.84577500     -1.77230200     -0.82769700
 1      1.49214100     -1.38218300     -1.71747800
 7     -0.29617600     -2.53859700     -0.66252400
 1     -0.23620800     -2.41695000     -1.68043700
 6      1.17242300      2.60540700      0.47122200
 6      1.35638900      3.25721900      1.87770000
 1      0.46308300      3.81911000      2.16906400
 1      2.21277500      3.94580100      1.84277100
 6      1.66977200      2.07446700      2.81563800
 1      0.74572300      1.55794900      3.10186800
 1      2.19048500      2.38723500      3.72726300
 6      2.54581800      1.14275900      1.94513500
 1      2.37702800      0.09106500      2.19640000
 1      3.61226100      1.38508900      2.04479200
 6      2.12906000      0.55577900     -0.47712400
 6      2.83319500     -0.80576600     -0.30629600
 1      2.99730800     -1.06284000      0.73782900
 6      0.82230400     -2.16342900      0.02192200
 6      4.18228000     -0.90500000     -1.06557700
 6      4.79052800     -2.28929200     -0.76248400
 1      4.09198500     -3.07964500     -1.06832200
 1      5.73697200     -2.41702400     -1.30792100
 1      4.98986000     -2.39769100      0.31414300
 6      3.99714100     -0.74069900     -2.58764700
 1      3.47692400      0.19605400     -2.81544600
 1      4.97994100     -0.74505500     -3.08101300
 1      3.40942300     -1.57517800     -2.99719300
 6      5.11245400      0.20484200     -0.52944800
 1      5.25462500      0.10087900      0.55672900
 1      6.09652300      0.13570200     -1.01425400
 1      4.69605000      1.20231800     -0.73196300
 6     -4.82917900      2.81341600     -1.29881900
 6     -3.53638700      3.26452000     -1.15707800
 6     -2.56150700      2.47851600     -0.48795800
 6     -2.94935400      1.20994500      0.04207700
 6     -4.28751800      0.76846200     -0.12017600
 6     -5.20896000      1.55142500     -0.77736600
 1     -0.94588000      3.87333900     -0.76117200
 1     -5.56688100      3.42382900     -1.81500900
 1     -3.24042600      4.23197100     -1.56043900
 6     -1.21575100      2.90672000     -0.34201100
 6     -1.96908700      0.43045900      0.70348700
 1     -4.56189200     -0.20708400      0.27641200
 1     -6.23311400      1.20641400     -0.90102500
 6     -0.67326900      0.86902900      0.81778400
 6     -0.27129500      2.12570600      0.28776400
 1     -2.25243100     -0.53742600      1.10951400
 1      0.04765200      0.21245200      1.29249700
 6     -1.61443800     -2.80277800     -0.22073100
 6     -2.63401700     -2.63345800     -1.17110300
 6     -1.94295100     -3.20501200      1.08014000
 6     -3.96284600     -2.84332700     -0.82159700
 1     -2.38024000     -2.31154100     -2.17901700
 6     -3.28059500     -3.40541100      1.42082800
 1     -1.14550700     -3.31528400      1.79994300
 6     -4.29657000     -3.22495500      0.48130000
 1     -4.74110700     -2.69743200     -1.56635900
 1     -3.52513200     -3.70882000      2.43599700
 1     -5.33579700     -3.38525000      0.75638000
 6      1.64413300      3.56886900     -0.63325300
 1      1.11170500      4.52631900     -0.56445100
 1      2.71681700      3.76032100     -0.49601900
 1      1.48036500      3.11634100     -1.61438500


