%nprocshared=8
%mem=6GB
#p b3lyp midix empiricaldispersion=gd3bj opt freq=noraman scrf=(pcm,solvent=diethylether)

title

0 1
16      2.35239300     -0.15834400      1.39991800
 8     -0.27869000      0.97788500     -1.49088300
 7     -1.02538800      1.20673000      0.63437100
 7      2.34991900      1.48723800     -0.68067500
 1      2.46056200      1.64489600     -1.66036000
 7      3.74674000     -0.36852900     -0.88207100
 1      4.13737600      0.07500400     -1.68562900
 6     -2.46011500      0.82201200      0.39573500
 6     -3.14974200      1.12638500      1.75103900
 1     -3.92363300      0.37651700      2.02366000
 1     -3.70930000      2.08817200      1.71054000
 6     -2.04910000      1.17587400      2.80430800
 1     -1.92874800      0.19380400      3.30837700
 1     -2.28612100      1.88987300      3.61843300
 6     -0.78289300      1.57207200      2.05383400
 1      0.12558900      1.03590300      2.43253500
 1     -0.57018500      2.66326500      2.16052100
 6     -0.08329100      1.44875900     -0.36904400
 6      1.21792400      2.22155900     -0.06017400
 1      1.43984100      2.27987700      1.05678900
 6      2.82929500      0.31667500     -0.08421300
 6      1.14688900      3.68440500     -0.57738100
 6      2.51289600      4.34814200     -0.39723000
 1      3.27915700      3.93707500     -1.06747400
 1      2.45714600      5.42295500     -0.62032300
 1      2.88214400      4.25352400      0.63255000
 6      0.73227700      3.81592500     -2.03806000
 1     -0.28398600      3.44153200     -2.22144900
 1      0.73251900      4.87220200     -2.34364300
 1      1.40390900      3.29551800     -2.73176900
 6      0.13718100      4.45486900      0.27534000
 1      0.43009600      4.47940700      1.33460400
 1      0.06210100      5.50052900     -0.05383700
 1     -0.87550100      4.02923300      0.21511300
 6     -2.63460000     -0.65246300      0.05950500
 6     -3.92713000     -1.21321300     -0.21829600
 6     -1.54198500     -1.49110300      0.06402900
 6     -5.13943400     -0.46711100     -0.18315200
 6     -4.02656100     -2.58658800     -0.52426100
 6     -1.65592600     -2.86572800     -0.24465400
 1     -0.51656500     -1.15061900      0.30029800
 6     -6.34812800     -1.05427700     -0.44719100
 1     -5.12633900      0.61704900      0.04932300
 6     -5.28723300     -3.18057600     -0.80574100
 6     -2.87116100     -3.41108700     -0.54552000
 1     -0.74830100     -3.48850000     -0.24097600
 6     -6.42890600     -2.42771100     -0.76715100
 1     -7.27174900     -0.45702800     -0.41337000
 1     -5.33374400     -4.25482700     -1.05210800
 1     -2.96678000     -4.48072200     -0.79578400
 1     -7.40923200     -2.87827000     -0.98146300
 6      4.53230100     -1.47606900     -0.40931600
 6      5.90492000     -1.48499900     -0.69957200
 6      3.94171000     -2.55594200      0.25463800
 6      6.67744900     -2.57388600     -0.31426000
 1      6.38692300     -0.65016500     -1.23757100
 6      4.73400100     -3.63592600      0.63414900
 1      2.86436200     -2.55660800      0.50759600
 6      6.09619900     -3.64828000      0.35408800
 1      7.75468700     -2.58349000     -0.53935100
 1      4.27265900     -4.48524400      1.16073000
 1      6.71424300     -4.50584600      0.65937800
 6     -3.03523900      1.72366800     -0.70906600
 1     -2.81778500      1.35707500     -1.72039700
 1     -4.13407100      1.80077500     -0.63641700
 1     -2.65852500      2.75715900     -0.65580400


