%nprocshared=8
%mem=20GB
#p b3lyp 6-31g* empiricaldispersion=gd3bj opt freq=noraman scrf=(pcm,solvent=diethylether)

title

0 1
16      3.28716900      0.58828400      1.08032800
 8     -0.74112900      1.68830800     -1.36628600
 7     -0.51578700      2.31654500      0.81602000
 7      1.93747700      1.05912600     -1.20204700
 1      1.23230500      0.67481800     -1.84944000
 7      2.57950600     -1.10278800     -0.94467900
 1      2.05561800     -1.18259000     -1.82392100
 6     -1.92397800      1.95582900      1.15572600
 6     -1.88702800      1.95998600      2.71551900
 1     -1.57602100      0.97563700      3.08253900
 1     -2.87737200      2.18618800      3.12490300
 6     -0.82581000      3.02674500      3.07123000
 1     -0.39495700      2.86855200      4.06581200
 1     -1.26553100      4.03120600      3.04384500
 6      0.24354300      2.87861900      1.96041900
 1      1.05094200      2.19323800      2.25583700
 1      0.68898000      3.84261100      1.69484000
 6     -0.03878300      2.12705000     -0.43397600
 6      1.46619800      2.34305500     -0.66330700
 1      2.00341800      2.48566100      0.27421000
 6      2.57634800      0.14608800     -0.39310300
 6      1.78626200      3.51817600     -1.62639200
 6      3.31877300      3.68426100     -1.67294500
 1      3.78797400      2.75047700     -2.01131100
 1      3.59221200      4.49092200     -2.36887300
 1      3.71499000      3.93035700     -0.67672800
 6      1.25280300      3.24392900     -3.04722100
 1      0.17767800      3.03765500     -3.01898300
 1      1.44785000      4.11489200     -3.68969300
 1      1.76451900      2.37434900     -3.48403600
 6      1.13814200      4.80069000     -1.06342800
 1      1.51683800      5.01840100     -0.05376000
 1      1.37787300      5.65648100     -1.71038700
 1      0.04359900      4.70271300     -1.01575900
 6     -5.87658000     -2.07160100     -1.46995000
 6     -5.37299300     -0.87226900     -1.00975600
 6     -4.09054000     -0.80090600     -0.42010100
 6     -3.30523700     -1.97472900     -0.29693900
 6     -5.10192000     -3.24089600     -1.34982500
 6     -3.57697900      0.44603600      0.04699800
 6     -1.99399800     -1.86735300      0.31495300
 6     -1.51808400     -0.59905600      0.77627300
 6     -2.34819800      0.58355500      0.61958200
 6     -0.23434800     -0.55705900      1.37173100
 1      0.17361700      0.38339200      1.70398800
 6      0.54890300     -1.68429000      1.50846500
 6      0.08083400     -2.92551800      1.05398300
 1     -4.21881800      1.30906100     -0.09193400
 1     -6.86423000     -2.11673900     -1.92271400
 1     -5.95762200      0.04235700     -1.09557000
 1     -5.49334200     -4.18945300     -1.71002100
 1      1.54144100     -1.58732200      1.93647000
 1      0.70429600     -3.81054200      1.14615200
 6     -3.84556100     -3.19003400     -0.77553300
 6     -1.16662300     -3.00399700      0.46895700
 6      3.04950300     -2.35002900     -0.47670600
 6      2.61222400     -3.48057500     -1.18680100
 6      3.89869100     -2.51579600      0.62500100
 6      3.00305900     -4.75467600     -0.79222800
 1      1.94766100     -3.35379000     -2.03932200
 6      4.27812800     -3.79938500      1.01468100
 1      4.21764300     -1.63143300      1.15755900
 6      3.83569600     -4.92403300      0.31749500
 1      2.65069700     -5.61882700     -1.35024000
 1      4.93137300     -3.91509900      1.87647400
 1      4.13695700     -5.92035400      0.63057000
 1     -3.27203200     -4.10789300     -0.69575000
 1     -1.51765300     -3.96857700      0.11693800
 6     -2.80947200      3.11381600      0.64174100
 1     -2.40186000      4.06223900      1.01246000
 1     -2.78627500      3.12423300     -0.45444700
 1     -3.84465600      3.02419400      0.99302300


