%nprocshared=8
%mem=6GB
#p pddg opt freq=noraman scrf=(pcm,solvent=diethylether)

title

0 1
16     -2.05502800     -0.20302200      1.53083800
 8      1.14588100     -0.28866100     -1.46537200
 7      1.90303300     -0.28033900      0.66474300
 7     -1.27899400     -1.41098200     -0.69996700
 1     -1.26724200     -1.51095100     -1.69392300
 7     -3.17471800     -0.07002300     -0.90352900
 1     -3.31083400     -0.48159200     -1.80175900
 6      3.82394400      1.75851800     -1.52089300
 1      4.22979700      0.94507800     -2.14398900
 6      3.81109700      3.04258600     -2.06178700
 1      4.21197400      3.20975800     -3.07268500
 6      3.29131500      4.10864900     -1.33749800
 6      2.78417200      3.88839200     -0.06007500
 1      2.36879100      4.72586300      0.51985300
 6      2.80094900      2.61086700      0.48703200
 1      2.40878800      2.45912300      1.50848900
 6      3.31829600      1.53284200     -0.24072200
 6      3.31890500      0.16412400      0.40734100
 6      3.97262500      0.24651800      1.81379100
 1      4.48912000      1.21444600      1.99250900
 1      4.77866600     -0.51052300      1.94069500
 6      2.85972700      0.02790400      2.83720800
 1      2.51208200      0.99148300      3.26957000
 1      3.20420800     -0.56628200      3.70748000
 6      1.73447200     -0.67746800      2.08719100
 1      0.72185300     -0.37118200      2.44916900
 1      1.78635000     -1.78560500      2.22494000
 6      1.05649300     -0.77726500     -0.34038900
 6     -0.02533600     -1.83401600     -0.02757000
 1     -0.24690800     -1.92271000      1.08937800
 6     -2.17787800     -0.56059600     -0.05589400
 6      0.41597300     -3.24420600     -0.51084700
 6     -0.77636900     -4.19970300     -0.45735100
 1     -1.54413200     -3.97121400     -1.20808600
 1     -0.45796000     -5.23300500     -0.65593600
 1     -1.25963200     -4.19801300      0.52850000
 6      0.99425800     -3.25884700     -1.92114700
 1      1.94290700     -2.70413000     -1.99067400
 1      1.21296400     -4.28777700     -2.23958700
 1      0.31377700     -2.83488600     -2.66989000
 6      1.48246600     -3.77957400      0.44628700
 1      1.11861600     -3.83450600      1.48216900
 1      1.78966000     -4.79604100      0.16407800
 1      2.39224800     -3.16229900      0.44305300
 1      3.27917100      5.11951500     -1.77066600
 6     -4.33543800      0.63320100     -0.42793100
 6     -5.59210600      0.24415500     -0.91563500
 6     -4.21835600      1.72532800      0.43759800
 6     -6.72415900      0.94945800     -0.52587000
 1     -5.70396800     -0.60574200     -1.61129300
 6     -5.36537300      2.41675900      0.81786300
 1     -3.23698600      2.03222300      0.84625600
 6     -6.61443800      2.03327400      0.34142800
 1     -7.71152300      0.64653200     -0.90595200
 1     -5.27678300      3.27446500      1.50190800
 1     -7.51519500      2.58545700      0.64845200
 6      4.07497300     -0.88751400     -0.41500900
 1      3.60857400     -1.11202000     -1.38671000
 1      5.10286800     -0.56037200     -0.62115200
 1      4.16561800     -1.84837500      0.11390700


