%nprocshared=8
%mem=6GB
#p pddg opt freq=noraman scrf=(pcm,solvent=diethylether)

title

0 1
16      1.82633400      0.80915200      0.75992700
 8      0.31319300     -3.16900500     -1.29365200
 7     -0.91496800     -2.33930200      0.39721200
 7      1.64131800     -0.63215600     -1.46862900
 1      2.02425800     -1.24606000     -2.15781200
 7      3.80801300     -0.20695200     -0.73246000
 1      4.13190500     -0.52451400     -1.62055100
 6     -1.10205300     -1.29533600      1.45372500
 1     -0.15693200     -0.65780300      1.55745000
 6     -1.35049700     -2.06737400      2.76283100
 1     -2.17686400     -1.63520600      3.36617000
 1     -0.46111000     -2.00749500      3.42539900
 6     -1.64774800     -3.51297900      2.37133500
 1     -2.74058600     -3.71543000      2.36830700
 1     -1.22909500     -4.23399600      3.10228800
 6     -1.04288900     -3.70497000      0.98224400
 1     -1.67973500     -4.33517700      0.32264100
 1     -0.06241500     -4.23581100      1.03788400
 6     -0.11648800     -2.15423600     -0.74307000
 6      0.17199000     -0.74343600     -1.29133100
 1     -0.18706700      0.06294500     -0.56301800
 6      2.44173200     -0.02928300     -0.50404100
 6     -0.57670200     -0.45365100     -2.62070900
 6     -0.39640000      1.02650200     -2.97172900
 1      0.64276000      1.28126600     -3.21398200
 1     -0.99561600      1.29453500     -3.85305000
 1     -0.71796200      1.68985700     -2.15701900
 6     -0.11004000     -1.28341000     -3.81097900
 1     -0.18330100     -2.36259200     -3.63130300
 1     -0.73560500     -1.07184500     -4.69035000
 1      0.92053300     -1.06431700     -4.11922000
 6     -2.06790200     -0.70888700     -2.40578500
 1     -2.45831600     -0.17214300     -1.52631900
 1     -2.65326100     -0.37780200     -3.27456300
 1     -2.29403500     -1.77411000     -2.26794600
 6     -4.10185700      3.96480300      0.19618200
 6     -3.02337600      3.17543100      0.49755900
 6     -3.19835700      1.77546700      0.66494300
 6     -4.47712400      1.21342100      0.52043700
 6     -5.58121200      2.04996700      0.20727700
 6     -5.39100900      3.39763400      0.04947300
 1     -1.08532800      1.40088400      1.07904500
 1     -3.97751200      5.05021200      0.06505900
 1     -2.01627400      3.60979300      0.61294000
 6     -2.09121000      0.94187900      0.97306200
 6     -4.65000100     -0.18518900      0.69391400
 1     -6.58197700      1.60122200      0.09530400
 1     -6.23949900      4.05492900     -0.19286100
 6     -3.57352400     -0.97738200      0.99401300
 6     -2.27921600     -0.41163700      1.12542900
 1     -5.65740600     -0.62033700      0.58706200
 1     -3.70875300     -2.06283200      1.14268700
 6      4.81985400      0.48807700      0.01785500
 6      5.82999000      1.15856200     -0.68671000
 6      4.84360800      0.43411600      1.41471200
 6      6.85633500      1.77751800      0.01706400
 1      5.83457500      1.19898400     -1.78992400
 6      5.87949400      1.06212100      2.10077200
 1      4.04208500     -0.07269700      1.98269600
 6      6.88260100      1.73240700      1.40850400
 1      7.65041700      2.30669300     -0.53132000
 1      5.90011800      1.02531000      3.20061300
 1      7.69657700      2.22720200      1.95935200


