%nprocshared=8
%mem=20GB
#p b3lyp 6-31g* empiricaldispersion=gd3bj opt freq=noraman scrf=(pcm,solvent=diethylether)

title

0 1
16      1.29952900     -0.62902400      1.38085600
 8     -0.74215200      0.99056200     -2.73186300
 7     -1.67839700     -0.71278700     -1.55078200
 7      0.89057800      1.30319600     -0.44698200
 1      1.14926700      1.65964100     -1.37729100
 7      3.04866900      0.61022800     -0.31802300
 1      3.14200200      1.30587400     -1.06719700
 6     -2.38833300     -0.91872800      1.98016000
 1     -1.35110700     -1.07177900      2.27062200
 6     -3.32454400     -0.46744100      2.91260600
 1     -3.02090500     -0.29126800      3.94202800
 6     -4.64350300     -0.23559900      2.52073100
 6     -5.01848100     -0.45138300      1.19165300
 1     -6.04248300     -0.26136100      0.87786100
 6     -4.07853600     -0.89137700      0.26153400
 1     -4.36684900     -1.01468000     -0.77873400
 6     -2.75809100     -1.13610400      0.64956900
 6     -1.70857900     -1.58598100     -0.34324400
 1     -0.72802100     -1.55473300      0.14382600
 6     -1.96511200     -2.99983800     -0.94949900
 1     -2.56502700     -3.62071900     -0.27642800
 1     -1.00030400     -3.49655100     -1.11878700
 6     -2.66465300     -2.73010000     -2.30704000
 1     -3.74079700     -2.57651400     -2.16156800
 1     -2.52898100     -3.55586300     -3.01422200
 6     -1.99783200     -1.43117600     -2.80270400
 1     -2.64764600     -0.81463900     -3.43312300
 1     -1.07344200     -1.63174200     -3.36529700
 6     -1.01668200      0.46862100     -1.63463100
 6     -0.56399000      1.14164400     -0.32775900
 1     -0.73441500      0.50897900      0.53989100
 6      1.77855500      0.45034600      0.15879600
 6     -1.25029400      2.51799200     -0.07368100
 6     -0.87551200      2.96090100      1.35593300
 1      0.21693900      3.00348000      1.46650100
 1     -1.29201900      3.95727600      1.56494900
 1     -1.27688700      2.25051800      2.09374400
 6     -0.78086700      3.57683900     -1.09208600
 1     -0.94577000      3.21250200     -2.11206600
 1     -1.33850200      4.51175600     -0.93654900
 1      0.28930200      3.79246700     -0.95949700
 6     -2.77995400      2.34662100     -0.17207100
 1     -3.14336000      1.60420100      0.54796700
 1     -3.26946700      3.30837500      0.03996700
 1     -3.07472500      2.02642400     -1.18158800
 1     -5.37465200      0.11997400      3.24297100
 6      4.28493700      0.02051500      0.03546500
 6      5.37644400      0.33425400     -0.79272300
 6      4.48199500     -0.81564500      1.14219800
 6      6.63853200     -0.18088900     -0.52120800
 1      5.22751900      0.98430500     -1.65343900
 6      5.75205800     -1.32834800      1.40130100
 1      3.62899500     -1.04606000      1.76368200
 6      6.83534200     -1.01942800      0.57881600
 1      7.47095600      0.07253400     -1.17331900
 1      5.89017500     -1.97680200      2.26350600
 1      7.82160300     -1.42434200      0.79062200


