%nprocshared=8
%mem=20GB
#p b3lyp 6-31g* empiricaldispersion=gd3bj opt freq=noraman scrf=(pcm,solvent=diethylether)

title

0 1
16     -1.66418900      1.26316400     -0.64416500
 8     -0.16862700     -3.10451700      1.34078100
 7      1.33319000     -2.46506100     -0.24217700
 7     -1.45572100     -0.73701400      1.12782300
 1     -1.80473700     -1.63160000      1.49996100
 7     -3.59321500     -0.30094700      0.50896500
 1     -3.76899100     -1.08705300      1.14485400
 6      1.64210700     -1.65381400     -1.47941200
 6      2.49261200     -2.66986400     -2.33546300
 1      3.36203200     -2.17627100     -2.78058300
 1      1.86526700     -3.05359800     -3.14987700
 6      2.87003100     -3.83116300     -1.38719900
 1      3.78674300     -3.60530400     -0.82868200
 1      3.01712200     -4.77368200     -1.92642400
 6      1.67417000     -3.89263800     -0.42653700
 1      1.89956600     -4.34060200      0.54530700
 1      0.82681700     -4.44311300     -0.86561400
 6      0.38161700     -2.18987700      0.69528100
 6      0.00541000     -0.74122700      1.03337200
 1      0.28918700     -0.02940300      0.26600900
 6     -2.27442800      0.03162800      0.35634500
 6      0.63969300     -0.27283500      2.39048200
 6      0.33895700      1.23318200      2.54785400
 1     -0.74350500      1.41532100      2.51751200
 1      0.72963700      1.59162700      3.51198500
 1      0.81061400      1.81057400      1.74067700
 6      0.03329700     -1.04816500      3.57688400
 1      0.17107300     -2.12675000      3.44080400
 1      0.52027800     -0.72989000      4.51004900
 1     -1.04236700     -0.83917800      3.66108600
 6      2.16591600     -0.48292300      2.36061400
 1      2.62918800      0.08918100      1.55093800
 1      2.59625500     -0.14437900      3.31463900
 1      2.42305000     -1.54253400      2.22372900
 6      2.79229800      4.35800700     -0.24205600
 6      2.06721000      3.27369300     -0.68125700
 6      2.65377400      1.98179600     -0.72181500
 6      4.00366000      1.81697000     -0.28910500
 6      4.72926400      2.95418100      0.14800500
 6      4.13818100      4.19746000      0.17071100
 1      0.89175500      1.01636700     -1.46171700
 1      2.33475300      5.34383500     -0.20699300
 1      1.02884000      3.38097600     -0.99010100
 6      1.91958200      0.84835900     -1.15487100
 6      4.55575500      0.50874100     -0.29793400
 1      5.76041600      2.82444900      0.47272200
 1      4.70042000      5.06351400      0.51201800
 6      3.80346900     -0.57225100     -0.68591600
 6      2.45808800     -0.41739100     -1.11970700
 1      5.58412700      0.37209300      0.03252000
 1      4.23796300     -1.56618500     -0.64165000
 6     -4.77954900      0.23910100     -0.03869600
 6     -5.95546000     -0.49897400      0.17943800
 6     -4.84982000      1.44904600     -0.74192200
 6     -7.17658600     -0.03705700     -0.29848300
 1     -5.90435100     -1.44029700      0.72444300
 6     -6.07962200      1.89901700     -1.21892000
 1     -3.93189900      1.99484000     -0.90561400
 6     -7.24726800      1.16675500     -1.00411000
 1     -8.07596800     -0.62193900     -0.12087700
 1     -6.11905800      2.83941300     -1.76408200
 1     -8.20134200      1.52726300     -1.38018300
 6      0.33982100     -1.34046100     -2.24653900
 1     -0.19592300     -2.28243700     -2.42655100
 1     -0.32986900     -0.65414700     -1.71767100
 1      0.58608900     -0.89019000     -3.21880300


