%nprocshared=8
%mem=20GB
#p b3lyp 6-31g* empiricaldispersion=gd3bj opt freq=noraman scrf=(pcm,solvent=diethylether)

title

0 1
16      2.15124200      0.08376300      1.86257600
 8      0.04406300      1.29606800     -1.57508600
 7     -0.86801900      1.92303400      0.44065900
 7      2.48315800      1.30410100     -0.52310700
 1      2.22110700      1.09196200     -1.50009900
 7      3.14149800     -0.87429100     -0.49123700
 1      3.42666000     -0.61406300     -1.44309900
 6     -2.22768800      1.37479600      0.13620400
 6     -3.03053400      1.88456600      1.37205700
 1     -3.92251200      1.28211300      1.55973900
 1     -3.33081500      2.92831900      1.20056600
 6     -2.00818400      1.80365700      2.52313000
 1     -1.89551100      0.76200200      2.84896900
 1     -2.29138200      2.41473200      3.38683200
 6     -0.69907200      2.29659800      1.87075600
 1      0.18083200      1.79321600      2.28358100
 1     -0.59143300      3.38414000      1.97161700
 6      0.15125300      1.81937500     -0.44772400
 6      1.54981200      2.34059000     -0.04673500
 1      1.67242600      2.41192600      1.03181900
 6      2.60532000      0.14751800      0.23468600
 6      1.88913500      3.71707600     -0.68972200
 6      3.27480400      4.15003600     -0.16765000
 1      4.02454800      3.38677800     -0.41434300
 1      3.57159500      5.10479300     -0.62572400
 1      3.25299300      4.27842100      0.92494700
 6      1.91687800      3.63625500     -2.23051600
 1      0.97403900      3.23110000     -2.61484900
 1      2.08163300      4.64003400     -2.64798100
 1      2.73971000      2.99091900     -2.57085600
 6      0.82485100      4.74381200     -0.24682400
 1      0.80363400      4.83415700      0.84892800
 1      1.06256100      5.73093600     -0.66797400
 1     -0.17664400      4.45113300     -0.59221500
 6     -2.19252900     -0.16705400      0.11856400
 6     -3.35280800     -0.95052500     -0.20522500
 6     -1.02219300     -0.82409000      0.44082800
 6     -4.65515300     -0.41110200     -0.41417200
 6     -3.22036200     -2.38007500     -0.28970400
 6     -0.90151900     -2.22814000      0.37185900
 1     -0.15166000     -0.27145400      0.76949100
 6     -5.73191300     -1.20916600     -0.72716400
 1     -4.82246000      0.65186500     -0.30446300
 6     -4.34737900     -3.17371500     -0.62974500
 6     -1.97231600     -2.99252300     -0.01255300
 1      0.05590900     -2.68508400      0.61371100
 6     -5.57920100     -2.60790800     -0.85209200
 1     -6.71102800     -0.75855400     -0.87311500
 1     -4.21256700     -4.25205800     -0.69981100
 1     -1.89171800     -4.07537600     -0.09268900
 1     -6.43503200     -3.22786700     -1.10833500
 6      3.26228700     -2.25970700     -0.23527000
 6      3.74436000     -3.04544800     -1.29583900
 6      2.91834400     -2.87672200      0.97586800
 6      3.87335700     -4.42172600     -1.15058700
 1      4.00976100     -2.56995200     -2.23857000
 6      3.04794200     -4.25923800      1.10598300
 1      2.56996200     -2.24998700      1.78344200
 6      3.52222000     -5.03996100      0.05228000
 1      4.24631600     -5.01403500     -1.98262500
 1      2.77624600     -4.72473700      2.05054900
 1      3.62092300     -6.11651000      0.16488600
 6     -2.71706300      2.01170700     -1.18567500
 1     -2.11025500      1.63431500     -2.01062500
 1     -3.77191800      1.80525400     -1.37696700
 1     -2.58065400      3.09958300     -1.10958200


