%nprocshared=8
%mem=6GB
#p b3lyp midix empiricaldispersion=gd3bj opt freq=noraman scrf=(pcm,solvent=diethylether)

title

0 1
16      3.85985400      0.60695900      1.10853300
 8     -0.62057800      0.99331600     -1.22525500
 7     -0.76291600      1.45447800      0.98338000
 7      2.14765800      0.72576300     -0.92486100
 1      1.90530700      0.56005600     -1.87986600
 7      3.76586400     -0.92856500     -1.08892500
 1      3.56764200     -0.99132000     -2.06419200
 6     -2.26026000      1.61200100      1.03287100
 6     -2.60709300      1.79193700      2.53251500
 1     -3.12022400      0.90652800      2.96945900
 1     -3.34382500      2.61215100      2.68695900
 6     -1.29299600      2.08226500      3.26029500
 1     -1.10669600      1.33584100      4.06268700
 1     -1.32074200      3.05863100      3.78664400
 6     -0.17701300      2.05216900      2.21403500
 1      0.68936800      1.43662500      2.55256400
 1      0.22378400      3.07808700      2.02184500
 6     -0.05063100      1.44458900     -0.23654200
 6      1.43549900      1.86316300     -0.29156000
 1      1.87567000      2.04607500      0.74903100
 6      3.26509600      0.14090900     -0.34008200
 6      1.63506700      3.19398600     -1.06728800
 6      3.12763600      3.53133900     -1.09460400
 1      3.71002900      2.83858000     -1.71509800
 1      3.29522800      4.53441600     -1.51053100
 1      3.57036700      3.51820100     -0.08807000
 6      1.12033800      3.17888700     -2.50112400
 1      0.03448700      3.03092800     -2.56090400
 1      1.32536300      4.14191500     -2.99117400
 1      1.59436900      2.41212100     -3.12630000
 6      0.91929100      4.31246300     -0.30911300
 1      1.33573600      4.45370100      0.69839300
 1      1.03161800      5.27375800     -0.82944400
 1     -0.16165000      4.13047800     -0.20685100
 6     -6.19442200     -1.32027800     -2.75858500
 6     -5.47132900     -0.27902600     -2.22159000
 6     -4.58255000     -0.51600300     -1.14835900
 6     -4.43527800     -1.80689200     -0.63517200
 6     -6.05129100     -2.62020800     -2.24179600
 6     -3.83617800      0.57179500     -0.58923600
 6     -3.51015000     -2.01697700      0.45211500
 6     -2.78439500     -0.93618900      0.99377300
 6     -2.97505700      0.40060600      0.45456400
 6     -1.88472200     -1.22176500      2.04819800
 1     -1.27550100     -0.43989600      2.53009600
 6     -1.72169800     -2.50116700      2.53197300
 6     -2.45399300     -3.56611400      1.98912200
 1     -4.00727900      1.54547100     -1.08417500
 1     -6.88717200     -1.14230100     -3.59467400
 1     -5.58170900      0.74033400     -2.62771700
 1     -6.63462700     -3.44456500     -2.67863200
 1     -1.01134300     -2.69358000      3.35047800
 1     -2.31955100     -4.58483100      2.38189300
 6     -5.18657400     -2.86254800     -1.19813400
 6     -3.33636700     -3.32267500      0.96294100
 6      4.91980700     -1.69094900     -0.69853600
 6      5.89660400     -1.96181200     -1.66819600
 6      5.03329500     -2.22271200      0.58995000
 6      6.98382800     -2.76152000     -1.33695600
 1      5.81704700     -1.56378600     -2.69483200
 6      6.13101500     -3.01995900      0.90168400
 1      4.28251900     -1.99849900      1.37054400
 6      7.10426400     -3.29025600     -0.05453300
 1      7.75257200     -2.97571900     -2.09478400
 1      6.22481800     -3.43767200      1.91562500
 1      7.96873300     -3.92093000      0.20148100
 1     -5.07251300     -3.88901700     -0.79480500
 1     -3.91688900     -4.16264300      0.52924600
 6     -2.61803100      2.94468700      0.34236800
 1     -2.13809100      3.79732100      0.84971700
 1     -2.30889000      2.99544300     -0.71230500
 1     -3.69549300      3.15601900      0.38604000


