%nprocshared=8
%mem=6GB
#p b3lyp midix empiricaldispersion=gd3bj opt freq=noraman scrf=(pcm,solvent=diethylether)

title

0 1
16     -3.02263500     -0.40877100      1.31298200
 8      0.79201500     -0.94396800     -1.29384300
 7      0.89649100     -1.41830700      0.91280500
 7     -2.05229900     -1.04953400     -1.07861600
 1     -1.78351600     -0.79825500     -2.00780600
 7     -3.30040900      0.91887300     -0.99649500
 1     -3.30218300      0.90861700     -1.99364800
 6      2.39541800     -1.42244800      1.06169900
 6      2.64882800     -1.68840500      2.57064500
 1      3.32967300     -0.94068200      3.03232200
 1      3.16944600     -2.65821100      2.73646300
 6      1.28564900     -1.67972600      3.25948600
 1      1.09988700     -0.71211800      3.77497500
 1      1.21557500     -2.44641000      4.05710100
 6      0.25866900     -1.92179000      2.15824500
 1     -0.70265300     -1.37714900      2.34878100
 1     -0.00878300     -3.00410000      2.08151900
 6      0.24148100     -1.47121500     -0.32941900
 6     -1.17772600     -2.07213200     -0.45312200
 1     -1.61814700     -2.35218200      0.56323700
 6     -2.78324000     -0.16186700     -0.28148200
 6     -1.17053800     -3.38964100     -1.27480000
 6     -2.55616400     -4.03541500     -1.18540400
 1     -3.33214100     -3.43984400     -1.68204500
 1     -2.56075600     -5.02076700     -1.67195500
 1     -2.87702000     -4.19256500     -0.14686400
 6     -0.82020200     -3.22510900     -2.74897900
 1      0.16466000     -2.76865100     -2.90502500
 1     -0.78818000     -4.20653200     -3.24442900
 1     -1.55574300     -2.63220600     -3.30777900
 6     -0.16077400     -4.34902100     -0.64332300
 1     -0.35276900     -4.50355000      0.42758000
 1     -0.20707500     -5.33759700     -1.12093300
 1      0.87863600     -4.00134700     -0.75140900
 6      5.71657200      2.86340800     -1.99705900
 6      5.25021900      1.60495400     -1.72031600
 6      4.33331500      1.40886300     -0.65266200
 6      3.91503500      2.51082800      0.10878600
 6      4.40849500      3.80698100     -0.19442200
 6      5.29215100      3.97380000     -1.22846100
 1      4.18181300     -0.72224400     -0.99772600
 1      6.42616600      3.02452800     -2.82234900
 1      5.57562400      0.73817200     -2.31896100
 6      3.83713800      0.10961300     -0.35693600
 6      3.00264700      2.30966300      1.17772600
 1      4.07167000      4.66591800      0.40894700
 1      5.68102700      4.97347900     -1.47315200
 6      2.54161900      1.05176200      1.45594500
 6      2.95411700     -0.06820100      0.67972000
 1      2.67558300      3.17523800      1.77705100
 1      1.84692000      0.90256100      2.30233000
 6     -4.23977100      1.85452300     -0.43991700
 6     -5.38272900      2.17239000     -1.18819100
 6     -3.98905500      2.49305300      0.77857800
 6     -6.27101500      3.12577700     -0.70508000
 1     -5.58941300      1.68974000     -2.15924000
 6     -4.89243500      3.44382700      1.24550000
 1     -3.10219100      2.23777000      1.38828600
 6     -6.02976200      3.76095200      0.51033400
 1     -7.16964300      3.37727500     -1.28854400
 1     -4.70007200      3.94614400      2.20574400
 1     -6.73856500      4.51303700      0.88801100
 6      3.01344300     -2.57581200      0.26183100
 1      4.10608400     -2.58991400      0.37065600
 1      2.65993100     -3.55857300      0.61022800
 1      2.79739500     -2.53240000     -0.81573700


