%nprocshared=8
%mem=6GB
#p pddg opt freq=noraman scrf=(pcm,solvent=diethylether)

title

0 1
16     -3.58474000     -0.21068000      1.09051200
 8      0.48848300     -2.11745400     -1.64265800
 7      0.47590500     -2.35769700      0.63284400
 7     -1.96006200     -0.68410100     -0.98907500
 1     -1.64299700     -0.44993900     -1.90845900
 7     -2.89476500      1.43051200     -0.89914800
 1     -2.51851000      1.59284800     -1.80799800
 6      1.98066000     -2.39348900      0.67793400
 1      2.35136700     -3.16410000     -0.06914600
 6      2.28440600     -2.93173600      2.07720300
 1      2.22792400     -2.17324300      2.88966500
 1      3.31941100     -3.31532900      2.15576700
 6      1.23701600     -4.02127800      2.22037400
 1      1.13134400     -4.40554800      3.25597400
 1      1.51468300     -4.90783200      1.61369700
 6     -0.02481300     -3.35172500      1.65683500
 1     -0.70255600     -4.13098500      1.20820200
 6     -0.18681400     -2.28559800     -0.63231900
 6     -1.72364200     -2.10743100     -0.59315800
 1     -2.13259400     -2.27773300      0.47433800
 6     -2.84389800      0.17085500     -0.31236000
 6     -2.50833600     -3.08565800     -1.52050800
 6     -4.00752500     -2.83705300     -1.30537300
 1     -4.34494500     -1.91459900     -1.79472100
 1     -4.59995900     -3.65926900     -1.72717700
 1     -4.27873200     -2.75501700     -0.24044600
 6     -2.21651400     -2.96248600     -3.00070700
 1     -1.18029100     -3.21440900     -3.25318400
 1     -2.84605200     -3.66312400     -3.56833100
 1     -2.42882500     -1.97006100     -3.41530400
 6     -2.22150700     -4.51560400     -1.09659300
 1     -2.65011500     -4.73605600     -0.10799100
 1     -2.67775600     -5.23334300     -1.79269800
 1     -1.14978900     -4.74458700     -1.05891400
 6      6.02406600      1.14598500     -2.34169900
 6      5.36470800     -0.01264800     -1.94362200
 6      4.35692600      0.05778400     -0.97426700
 6      4.01473800      1.29737900     -0.40989500
 6      5.69256500      2.37911200     -1.78900500
 6      3.64284600     -1.11870700     -0.56113800
 6      2.97772800      1.36220700      0.56682300
 6      2.29868800      0.19038600      0.98370400
 6      2.65441600     -1.07625700      0.38041200
 6      1.28690500      0.33062200      1.93584000
 1      0.73814500     -0.55079100      2.31925400
 6      0.93305500      1.57761900      2.44123700
 6      1.59966100      2.72489600      2.03404500
 1      3.92834200     -2.05680500     -1.07545100
 1      6.81148000      1.08517100     -3.10837900
 1      5.62739100     -0.98207500     -2.39906400
 1      6.22333900      3.29162700     -2.10719000
 1      0.10247200      1.65031900      3.16049300
 1      1.32502700      3.70993100      2.44592100
 6      4.68703600      2.46200700     -0.82258700
 6      2.63144400      2.61827700      1.09466400
 6      4.32224100      3.72340200     -0.25062100
 1      4.86870100      4.62545200     -0.57222400
 6      3.33714200      3.79545100      0.67226300
 1      3.06146500      4.76090900      1.12932300
 6     -3.80802400      2.46947300     -0.49604000
 6     -4.52123200      3.13653400     -1.50438600
 6     -3.90097800      2.89000700      0.83217500
 6     -5.34414500      4.20345900     -1.16703400
 1     -4.43668500      2.83180500     -2.56271600
 6     -4.72584700      3.96644400      1.14919700
 1     -3.33838400      2.38241300      1.63850000
 6     -5.45047700      4.61933300      0.15885500
 1     -5.90507600      4.72724800     -1.95577500
 1     -4.79582200      4.30696000      2.19371800
 1     -6.09616300      5.47127600      0.42107700
 6     -0.86011800     -2.62934800      2.70384000
 1     -0.51313800     -1.60871200      2.94489700
 1     -1.89680800     -2.50794500      2.31420900
 1     -0.88970600     -3.17823600      3.65631200


