%nprocshared=8
%mem=20GB
#p b3lyp 6-31g* empiricaldispersion=gd3bj opt freq=noraman scrf=(pcm,solvent=diethylether)

title

0 1
16      1.64155700     -1.87757700      1.63234000
 8      1.13515800      1.24633900     -1.55371900
 7      1.22128600      1.79889500      0.64697300
 7      2.34269200     -1.09363700     -0.85273700
 1      1.91627100     -0.85964400     -1.76385100
 7      0.64025100     -2.61476000     -0.78871400
 1      0.66485400     -2.43876700     -1.80003500
 6     -0.05325000      2.53331200      0.52213200
 1      0.01088800      3.18574600     -0.35213400
 6     -0.10339900      3.32463100      1.85902600
 1     -1.12785600      3.58707300      2.14124600
 1      0.48983400      4.24461300      1.76441000
 6      0.56722400      2.35049600      2.85949700
 1     -0.14905100      1.57436400      3.15603800
 1      0.93359500      2.85427100      3.76014300
 6      1.71849800      1.71235300      2.04172200
 1      1.88644200      0.66522900      2.31659200
 1      2.65159800      2.28168700      2.14958700
 6      1.69026400      1.14821600     -0.44102200
 6      2.86259900      0.16438000     -0.27639500
 1      3.07832500     -0.04091700      0.77089000
 6      1.51949200     -1.87353600     -0.05628600
 6      4.16666300      0.61929500     -0.97866800
 6      5.26310900     -0.41635200     -0.65622500
 1      4.94731600     -1.41315600     -0.99273100
 1      6.20072800     -0.14829000     -1.16486000
 1      5.45239200     -0.45768700      0.42687500
 6      3.98872200      0.72796000     -2.50728300
 1      3.14514100      1.38344700     -2.74904900
 1      4.90906800      1.12649700     -2.95818200
 1      3.79945100     -0.26370700     -2.94419700
 6      4.55962800      1.99615300     -0.40094400
 1      4.67693300      1.94136900      0.69182300
 1      5.51452100      2.32603800     -0.83418900
 1      3.79618900      2.75299500     -0.63321400
 6     -1.23758100      1.58467900      0.37180900
 6     -2.46695800      2.07586900     -0.16449900
 6     -1.14890200      0.26848400      0.77104800
 6     -2.64784900      3.42688300     -0.57015000
 6     -3.57511600      1.17665200     -0.30276600
 6     -2.24637000     -0.61404400      0.64403100
 1     -0.22198900     -0.12733800      1.17419900
 6     -3.84492700      3.86293400     -1.09111100
 1     -1.82741500      4.13079900     -0.46874900
 6     -4.79476600      1.65712400     -0.84666300
 6     -3.43177500     -0.17302200      0.11019500
 1     -2.13371100     -1.64582100      0.96436900
 6     -4.93211700      2.96949100     -1.23373200
 1     -3.95796700      4.90071500     -1.39632600
 1     -5.62531000      0.96017800     -0.94865700
 1     -4.27715100     -0.84985400     -0.00258600
 1     -5.87258400      3.32543100     -1.64792400
 6     -0.47541600     -3.39269100     -0.39488200
 6     -1.46989700     -3.58970900     -1.36637500
 6     -0.63370600     -3.95360800      0.87857100
 6     -2.61389600     -4.31871000     -1.06303700
 1     -1.35032400     -3.14898200     -2.35419100
 6     -1.78871000     -4.67831300      1.17228800
 1      0.13436800     -3.77753200      1.61670500
 6     -2.78399200     -4.86358400      0.21236500
 1     -3.37916300     -4.45386300     -1.82338300
 1     -1.90491400     -5.10244100      2.16683500
 1     -3.68170900     -5.42746200      0.45232200


