%nprocshared=8
%mem=6GB
#p b3lyp midix empiricaldispersion=gd3bj opt freq=noraman scrf=(pcm,solvent=diethylether)

title

0 1
16     -3.72516500     -0.05973800      1.00520400
 8      0.27514900     -2.03306500     -1.60906200
 7      0.35995200     -2.26403600      0.64026600
 7     -2.16779000     -0.65297200     -1.07333700
 1     -1.91235500     -0.53711300     -2.03234700
 7     -3.11613000      1.46479700     -1.11184900
 1     -2.92205600      1.51501100     -2.08837800
 6      1.84945700     -2.41737000      0.61495700
 1      2.09804600     -3.23298700     -0.13701900
 6      2.24378400     -2.93172200      2.00763000
 1      2.61492800     -2.12931000      2.68267600
 1      3.09386200     -3.64207700      1.94241800
 6      0.98970500     -3.59453200      2.57065400
 1      0.90993200     -3.44795000      3.66954300
 1      1.02983200     -4.69690200      2.44137500
 6     -0.20867000     -2.99914400      1.81657700
 1     -0.90517100     -3.82193300      1.47429400
 6     -0.36500400     -2.15187800     -0.56873100
 6     -1.90218700     -2.00757400     -0.52342700
 1     -2.28809700     -2.06152000      0.56298300
 6     -3.01263700      0.24762600     -0.43298400
 6     -2.65259300     -3.11916200     -1.30344800
 6     -4.15976300     -2.90097700     -1.14106100
 1     -4.51021800     -1.97732400     -1.61874300
 1     -4.72711400     -3.72457800     -1.59572700
 1     -4.45475500     -2.84725100     -0.08282800
 6     -2.34035700     -3.17761700     -2.79376300
 1     -1.28722500     -3.39911600     -3.00308300
 1     -2.92197500     -3.97813400     -3.27440900
 1     -2.59758400     -2.25531400     -3.32959100
 6     -2.31659200     -4.47322300     -0.67953500
 1     -2.66188600     -4.53671500      0.36258000
 1     -2.81459500     -5.28980600     -1.22073700
 1     -1.24150800     -4.69432700     -0.69344600
 6      5.84546500      0.86165600     -2.75450100
 6      5.08716600     -0.23306700     -2.35299200
 6      4.23049400     -0.12161200     -1.25252000
 6      4.13851500      1.09641900     -0.55686000
 6      5.76389100      2.07314200     -2.07421600
 6      3.43512100     -1.23606800     -0.81971900
 6      3.26088800      1.20351800      0.56494500
 6      2.48256900      0.09572800      0.98461700
 6      2.59281900     -1.15036400      0.24935200
 6      1.64575400      0.26978900      2.09261300
 1      1.00267700     -0.54907300      2.47549900
 6      1.57578000      1.48921100      2.75874800
 6      2.33657200      2.57500800      2.34774600
 1      3.53669700     -2.16710800     -1.41074700
 1      6.51745300      0.76921800     -3.62125800
 1      5.15811100     -1.18701100     -2.90166700
 1      6.36944000      2.93451600     -2.40158600
 1      0.90245200      1.59161200      3.62387200
 1      2.27229600      3.53721300      2.88236300
 6      4.91171400      2.19896800     -0.97372200
 6      3.18493800      2.43642000      1.24657800
 6      4.81046600      3.44289800     -0.25719300
 1      5.42061200      4.29669700     -0.59587400
 6      3.98151200      3.55394600      0.80716800
 1      3.89854200      4.50459400      1.36050500
 6     -3.92090100      2.55638300     -0.63534800
 6     -4.79275200      3.18555900     -1.53551900
 6     -3.78501800      3.03208400      0.67276100
 6     -5.52869800      4.28700900     -1.11462700
 1     -4.90129700      2.83257400     -2.57578600
 6     -4.53244000      4.13554200      1.07454700
 1     -3.11735700      2.53198700      1.39839000
 6     -5.40208100      4.76222700      0.18792500
 1     -6.21533900      4.78329400     -1.81704500
 1     -4.43119200      4.51127600      2.10406100
 1     -5.98989900      5.63288800      0.51514900
 6     -1.00924200     -2.06099200      2.71441900
 1     -0.42253400     -1.18791300      3.05166400
 1     -1.91082800     -1.67440400      2.19403400
 1     -1.34874300     -2.58419100      3.61609600


