%nprocshared=8
%mem=6GB
#p b3lyp midix empiricaldispersion=gd3bj opt freq=noraman scrf=(pcm,solvent=diethylether)

title

0 1
16     -2.60302700      0.93169000     -0.54319500
 8     -0.64754100     -3.47763400      1.08777500
 7      0.67305100     -2.58640100     -0.48263700
 7     -2.31398600     -1.23199300      0.98211700
 1     -2.65639100     -1.85545400      1.68405600
 7     -4.50719000     -0.56419500      0.60441600
 1     -4.78785100     -1.11670600      1.38572400
 6      0.98552900     -1.62106400     -1.59037300
 6      1.89249900     -2.39676800     -2.58455800
 1      2.94431800     -2.03362000     -2.59599800
 1      1.57036600     -2.24501100     -3.63995300
 6      1.82943800     -3.87287500     -2.19921700
 1      2.84822100     -4.29258500     -2.05379700
 1      1.38673700     -4.48782200     -3.01035800
 6      1.00797900     -3.97802500     -0.91510100
 1      1.57520400     -4.47860700     -0.09684900
 1      0.09826400     -4.60609200     -1.07287900
 6     -0.28247700     -2.43540900      0.53995400
 6     -0.83404000     -1.06977800      0.98891600
 1     -0.52669600     -0.23963900      0.26370100
 6     -3.15247100     -0.28796600      0.39503700
 6     -0.30412800     -0.62510500      2.38075700
 6     -0.92584200      0.73043300      2.73037800
 1     -2.00519300      0.67083200      2.91909400
 1     -0.47434500      1.14434300      3.64254500
 1     -0.77443700      1.46938100      1.93003200
 6     -0.59781600     -1.59195100      3.52108900
 1     -0.13067500     -2.57371100      3.37721500
 1     -0.19684000     -1.19786900      4.46642600
 1     -1.66890200     -1.75611300      3.69234300
 6      1.20667700     -0.42733900      2.28813500
 1      1.47273900      0.32922100      1.53155400
 1      1.61981000     -0.08299100      3.24586300
 1      1.74335200     -1.34771900      2.01964800
 6      1.89097800      4.46856600     -0.75871900
 6      1.21248800      3.30054700     -1.09061900
 6      1.82500300      2.05807900     -0.89093900
 6      3.11657400      1.99426900     -0.34385400
 6      3.17509500      4.41929800     -0.22475300
 6      1.15184300      0.84106500     -1.25188600
 6      3.71847200      0.71924400     -0.11668800
 6      3.03447600     -0.47734700     -0.45259700
 6      1.71961800     -0.38607300     -1.08135500
 6      3.66513800     -1.68655900     -0.13131600
 1      3.20301500     -2.66732600     -0.33332300
 6      4.92505400     -1.71637600      0.45855500
 6      5.60681400     -0.54473800      0.75245500
 1      0.12735600      0.99109200     -1.65449100
 1      1.40570700      5.44325200     -0.92018000
 1      0.19153500      3.35294100     -1.50696000
 1      3.70468300      5.35142200      0.03332300
 1      5.38739400     -2.68762300      0.69367700
 1      6.60956300     -0.57946200      1.20981900
 6      3.79386700      3.18463200     -0.01039800
 6      5.00206800      0.68190500      0.46864100
 6      5.11478900      3.11027000      0.55491900
 1      5.63847500      4.04996300      0.79732500
 6      5.69075300      1.90749500      0.78562900
 1      6.70074200      1.84133600      1.22449000
 6     -5.56375700      0.26912900      0.09749900
 6     -6.59590800      0.64099600      0.97141100
 6     -5.60866200      0.63810400     -1.25053000
 6     -7.66462400      1.38603300      0.48732400
 1     -6.58519200      0.34769900      2.03568100
 6     -6.68712200      1.38579200     -1.71500400
 1     -4.79150600      0.37116900     -1.94583300
 6     -7.71221100      1.76065700     -0.85285400
 1     -8.47572800      1.68112400      1.17020000
 1     -6.72396300      1.68064600     -2.77477900
 1     -8.55999000      2.35294800     -1.22860600
 6     -0.30814300     -1.30461700     -2.36573200
 1     -0.74748200     -2.21503900     -2.80021300
 1     -1.11029800     -0.83123500     -1.77387400
 1     -0.11406700     -0.63773800     -3.21818900


