%nprocshared=8
%mem=20GB
#p b3lyp 6-31g* empiricaldispersion=gd3bj opt freq=noraman scrf=(pcm,solvent=diethylether)

title

0 1
16     -0.14916900     -1.47091000      1.93574000
 8      1.56250900      0.41887200     -1.76539500
 7      1.96885600      1.29952300      0.28829600
 7      0.94454400     -1.90404500     -0.49460400
 1      0.78812300     -1.66217600     -1.48676300
 7     -1.33635000     -1.96614500     -0.46307000
 1     -1.17863800     -2.10620600     -1.46799400
 6     -0.60139800      3.52747100     -1.27543800
 1      0.04699600      4.23628700     -1.78964400
 6     -1.97784700      3.55715900     -1.49948000
 1     -2.39939200      4.29041500     -2.18397200
 6     -2.80997400      2.64006600     -0.85417600
 6     -2.25531500      1.69947100      0.01416100
 1     -2.89162500      0.97622600      0.51688700
 6     -0.87717500      1.67137100      0.23485400
 1     -0.46944000      0.91078500      0.89476600
 6     -0.03839900      2.58579200     -0.40941600
 6      1.46428200      2.61269700     -0.16518400
 1      1.97312300      2.89726500     -1.09176500
 6      1.85310500      3.53681800      1.02239200
 1      1.21343500      4.42387100      1.07238300
 1      2.89891100      3.85466400      0.91143400
 6      1.70015100      2.60922700      2.25179700
 1      0.64038600      2.52179200      2.52238900
 1      2.25709800      2.96658300      3.12438300
 6      2.22462600      1.24039100      1.74938000
 1      1.67186500      0.40579800      2.19333200
 1      3.29960400      1.12439800      1.94317800
 6      1.90505300      0.26196200     -0.57622300
 6      2.14684900     -1.16594400     -0.05373700
 1      2.15546000     -1.20688800      1.03405900
 6     -0.20310100     -1.78548300      0.27335100
 6      3.44560000     -1.81857900     -0.59060600
 6      3.58978500     -3.20175100      0.07623300
 1      2.70822000     -3.81823600     -0.14564100
 1      4.48743900     -3.71324300     -0.30073900
 1      3.67773700     -3.09945500      1.16830200
 6      3.41468800     -1.98177300     -2.12428300
 1      3.20955400     -1.02070100     -2.60803100
 1      4.38119900     -2.37363600     -2.47278700
 1      2.63265000     -2.69672900     -2.41950600
 6      4.63106400     -0.91579000     -0.18576500
 1      4.66103600     -0.77885400      0.90568700
 1      5.57800800     -1.37590100     -0.50208800
 1      4.55287500      0.07351100     -0.65968500
 1     -3.88310600      2.65219500     -1.03142200
 6     -2.69768800     -1.73312300     -0.15289200
 6     -3.55401500     -1.52480700     -1.24614700
 6     -3.21647300     -1.69124500      1.14734300
 6     -4.90249900     -1.25731900     -1.04232600
 1     -3.14980500     -1.55128300     -2.25631000
 6     -4.57052400     -1.41626800      1.33890200
 1     -2.53915500     -1.84081600      1.97479200
 6     -5.41951200     -1.19488400      0.25438100
 1     -5.54981100     -1.08804200     -1.89924900
 1     -4.96067900     -1.37767600      2.35321200
 1     -6.47248200     -0.97846300      0.41502900


