%nprocshared=8
%mem=6GB
#p b3lyp midix empiricaldispersion=gd3bj opt freq=noraman scrf=(pcm,solvent=diethylether)

title

0 1
16      1.74645500     -0.88375600      0.81579300
 8     -1.20365600      1.99899500     -2.20647600
 7     -2.36252700      0.21356200     -1.49978200
 7      0.98794300      1.21904700     -0.63061000
 1      1.19296200      2.08180900     -1.09160300
 7      3.25115500      0.70523800     -0.73051100
 1      3.42634400      1.62692600     -1.06805800
 6     -1.92400500     -1.67913200      1.46798300
 1     -0.90404200     -2.04466900      1.23918800
 6     -2.32154600     -1.66653900      2.80327700
 1     -1.62952600     -2.03329500      3.57671000
 6     -3.57724200     -1.19129300      3.16198800
 6     -4.44481000     -0.73208700      2.17510400
 1     -5.44261800     -0.35806800      2.44909500
 6     -4.05539300     -0.74675800      0.84069400
 1     -4.76408300     -0.38935800      0.07265900
 6     -2.78648500     -1.21248400      0.47517200
 6     -2.41144600     -1.20386100     -0.99349000
 6     -3.53961700     -1.88894700     -1.81812800
 1     -4.27424000     -2.42830000     -1.18163100
 1     -3.13894300     -2.68572500     -2.48484700
 6     -4.22337300     -0.79802000     -2.63647700
 1     -5.17827500     -0.47460000     -2.16783300
 1     -4.51153200     -1.15305200     -3.64665700
 6     -3.22426800      0.35051000     -2.71178600
 1     -3.72484900      1.34504500     -2.71980000
 1     -2.62809400      0.31173100     -3.65416800
 6     -1.31665700      1.13953200     -1.33052100
 6     -0.39705600      1.12728700     -0.09605000
 1     -0.52938100      0.15926900      0.50010800
 6      2.00741100      0.39126400     -0.17166800
 6     -0.71601900      2.27537300      0.90182100
 6      0.15742800      2.09458300      2.14669800
 1      1.22726000      2.22144700      1.93712900
 1     -0.10206100      2.83102700      2.91938000
 1      0.03464200      1.09765300      2.59398000
 6     -0.48244200      3.67877900      0.35563900
 1     -1.08208300      3.89025900     -0.53785400
 1     -0.76766600      4.43105400      1.10544100
 1      0.56697800      3.88482500      0.10958400
 6     -2.17544400      2.16149700      1.33594800
 1     -2.41155900      1.15839100      1.72767000
 1     -2.40751000      2.88348500      2.13085700
 1     -2.87360000      2.36677300      0.51438000
 1     -3.88460400     -1.17995600      4.21817500
 6      4.45376300     -0.01096500     -0.40007000
 6      5.59128300      0.72394300     -0.03643000
 6      4.51423800     -1.40342300     -0.51291900
 6      6.78320900      0.05517500      0.21635500
 1      5.56528900      1.82444600      0.04533500
 6      5.71717100     -2.05427600     -0.25408000
 1      3.61949200     -1.99683200     -0.77517300
 6      6.84862400     -1.33150500      0.10968000
 1      7.67814900      0.62769100      0.50359000
 1      5.76818700     -3.15045300     -0.33858800
 1      7.79486700     -1.85463500      0.31372600
 6     -1.10934800     -1.95660300     -1.28721200
 1     -0.89642700     -2.01580600     -2.36437300
 1     -0.20395700     -1.53282000     -0.82034200
 1     -1.17698500     -2.99335300     -0.92981100


