%nprocshared=8
%mem=3GB
#p b3lyp cc-pVTZ empiricaldispersion=gd3bj scrf=(pcm,solvent=diethylether)

title

0 1
16     -2.38517300      2.70659200      0.87123600
 8     -1.37711500     -1.49397700     -1.53259300
 7     -1.99544200     -1.79868000      0.62129800
 7     -2.13245800      1.07370500     -1.24063200
 1     -1.52494000      0.67254300     -1.95145600
 7     -0.37830800      2.47643000     -0.95901200
 1     -0.00539100      1.88608700     -1.69388300
 6     -0.93415200     -2.82084400      0.78410800
 1     -1.15941500     -3.64444500      0.09582100
 6     -1.15973200     -3.30778000      2.22449000
 1     -0.64163200     -2.65189300      2.93192600
 1     -0.77690200     -4.32128600      2.36465000
 6     -2.68065100     -3.19889800      2.38084200
 1     -3.01530800     -3.22723500      3.42113200
 1     -3.17024000     -4.01726400      1.84100100
 6     -3.01069800     -1.84964100      1.71227800
 1     -4.00120800     -1.87346000      1.25634500
 6     -2.10791200     -1.18683700     -0.58151300
 6     -3.03532300      0.03474000     -0.73239000
 1     -3.40415600      0.37420300      0.23288600
 6     -1.58837000      2.06812700     -0.47523400
 6     -4.25250100     -0.17680600     -1.67922700
 6     -5.09863100      1.10641500     -1.64038700
 1     -4.51463700      1.96945400     -1.97456800
 1     -5.97005600      1.00501200     -2.29715100
 1     -5.45635400      1.31453100     -0.62586800
 6     -3.81557300     -0.45558900     -3.12713600
 1     -3.20080400     -1.35580900     -3.19790100
 1     -4.70231800     -0.58660700     -3.75756000
 1     -3.24246700      0.38372900     -3.53577900
 6     -5.09187300     -1.35783900     -1.16622300
 1     -5.47734100     -1.16798900     -0.15795000
 1     -5.95460000     -1.51578500     -1.82232900
 1     -4.51526500     -2.29035000     -1.14922300
 6      4.72543500     -3.61264700     -1.62885800
 6      3.41058900     -3.91629700     -1.28044600
 6      2.62612100     -2.99083700     -0.57387500
 6      3.18908400     -1.73350000     -0.21153500
 6      5.28346300     -2.38254000     -1.28462200
 6      1.26458500     -3.25610700     -0.22031000
 6      2.39916500     -0.79060300      0.50852700
 6      1.04293100     -1.09142000      0.86624700
 6      0.48164200     -2.36865400      0.46062200
 6      0.32516900     -0.11740000      1.57936700
 1     -0.70223000     -0.29737200      1.84099900
 6      0.89749900      1.10169400      1.93532300
 6      2.20838400      1.39875500      1.58622200
 1      0.84057400     -4.20673000     -0.53603600
 1      5.31927300     -4.33928600     -2.17593200
 1      2.97828800     -4.87435300     -1.55680700
 1      6.30795300     -2.15017300     -1.56326100
 1      0.29342200      1.83466100      2.45915200
 1      2.64023300      2.36276500      1.83775000
 6      4.53526800     -1.42761500     -0.57791500
 6      2.97419200      0.46795600      0.87015500
 6      5.07372400     -0.14727200     -0.21366300
 1      6.09536300      0.08522700     -0.50270800
 6      4.32561100      0.75600800      0.47650900
 1      4.73731300      1.72512200      0.74521000
 6      0.57057100      3.42945100     -0.53049300
 6      1.85532500      3.29010900     -1.08179200
 6      0.32066900      4.46937800      0.37253800
 6      2.87901800      4.15756100     -0.72102800
 1      2.05803700      2.47638900     -1.77377300
 6      1.36020100      5.32932400      0.73140600
 1     -0.66504000      4.58991500      0.79538000
 6      2.64030100      5.18280400      0.19749900
 1      3.86687700      4.02204200     -1.15130300
 1      1.15557600      6.12758500      1.43928700
 1      3.43885600      5.85883300      0.48761400
 6     -2.95501900     -0.69522900      2.71987500
 1     -2.07566900     -0.76688900      3.36754600
 1     -2.94164700      0.28654300      2.23946700
 1     -3.84205400     -0.74934900      3.36055700


