%nprocshared=8
%mem=3GB
#p b3lyp cc-pVTZ empiricaldispersion=gd3bj scrf=(pcm,solvent=diethylether)

title

0 1
16     -0.70030500     -1.60893000      1.77660500
 8      1.77138000      0.28243300     -1.75540900
 7      2.24353700      0.90357400      0.36892100
 7      0.46994700     -1.86185600     -0.63673900
 1      0.39632800     -1.67171100     -1.63280900
 7     -1.76617400     -1.44317800     -0.70217700
 1     -1.57972900     -1.23560600     -1.67694900
 6      0.45066400      3.86435300     -1.05665300
 1      1.28578600      4.40276900     -1.49926700
 6     -0.85544600      4.28916000     -1.30063200
 1     -1.03150100      5.15775300     -1.92937100
 6     -1.93326500      3.59334900     -0.74764600
 6     -1.69224900      2.47455800      0.05127100
 1     -2.51990200      1.91813400      0.48060800
 6     -0.38397300      2.05332400      0.29455000
 1     -0.21821400      1.16999800      0.90298000
 6      0.70098100      2.74310000     -0.25768700
 6      2.14149200      2.33036100      0.01381100
 1      2.73419800      2.52077300     -0.88421700
 6      2.74900000      3.02400800      1.25049200
 1      2.37958300      4.04529700      1.36808700
 1      3.83957200      3.06131600      1.14726100
 6      2.35460600      2.09575400      2.40636700
 1      1.31110300      2.26867800      2.68855100
 1      2.97319500      2.22916000      3.29733100
 6      2.50587000      0.69139400      1.80595800
 1      1.79473600     -0.01871100      2.23426500
 1      3.52166100      0.30406400      1.94780400
 6      1.97501800     -0.02618300     -0.57362900
 6      1.79659000     -1.49023400     -0.13729900
 1      1.74967600     -1.57296700      0.94554100
 6     -0.66918400     -1.63497500      0.08573500
 6      2.90673400     -2.45285600     -0.63958600
 6      2.65528300     -3.83140900     -0.00725800
 1      1.66713700     -4.21235000     -0.28397800
 1      3.40882700     -4.55020100     -0.34845100
 1      2.70422600     -3.78039800      1.08658600
 6      2.91842500     -2.58591800     -2.17184100
 1      3.03976600     -1.61530900     -2.65779800
 1      3.74404500     -3.23833900     -2.47762900
 1      1.99169200     -3.04185100     -2.53907000
 6      4.26231000     -1.90437000     -0.16218800
 1      4.28410800     -1.79151600      0.92812500
 1      5.06730600     -2.59236700     -0.44191900
 1      4.48441800     -0.93042500     -0.61261600
 1     -2.95163200      3.91877000     -0.94131300
 6     -3.11155000     -1.21684400     -0.31391800
 6     -3.81236300     -0.19652900     -0.96689300
 6     -3.75754200     -2.01247500      0.63742100
 6     -5.15224800      0.03640700     -0.65972400
 1     -3.30104500      0.42175200     -1.69918600
 6     -5.09328100     -1.76237000      0.94720600
 1     -3.21710900     -2.81297200      1.12517500
 6     -5.79609400     -0.74097000      0.30391800
 1     -5.68718800      0.83184200     -1.17012300
 1     -5.58947500     -2.37986100      1.69016200
 1     -6.83755700     -0.55589800      0.54911700


