%mem=3GB
%nprocshared=4
#p b3lyp empiricaldispersion=gd3bj cc-pVDZ

benzene monomer

0 1
C      1.391500000000    -0.000000000000     2.495750000000
H      2.471500000000    -0.000000000000     2.495750000000
C      0.695750000000     1.205074349366     2.495750000000
H      1.235750000000     2.140381785453     2.495750000000
C      0.695750000000    -1.205074349366     2.495750000000
H      1.235750000000    -2.140381785453     2.495750000000
C     -0.695750000000     1.205074349366     2.495750000000
H     -1.235750000000     2.140381785453     2.495750000000
C     -0.695750000000    -1.205074349366     2.495750000000
H     -1.235750000000    -2.140381785453     2.495750000000
C     -1.391500000000    -0.000000000000     2.495750000000
H     -2.471500000000    -0.000000000000     2.495750000000

