%mem=1GB
#p am1 opt=modredundant

MeCl scan

-1 1
 C                 -0.09595300   -0.17418100    0.40262200
 H                  0.96362200    0.15329000    0.42484000
 H                 -0.78057700    0.68297800    0.23830300
 H                 -0.25710300   -0.97071100   -0.35236400
 Cl                 0.65193112    1.18342176   -2.73546405
 Cl                -0.47766800   -0.86708700    2.00425800

B 1 5 S 40 -0.05


