%mem=1GB
#p opt=(ts,calcfc,noeigentest) freq=noraman am1 scrf=(pcm,solvent=water)

Title Card Required

-1 1
 C                 -0.00017600    0.00000300    0.00000300
 H                  0.00042500   -0.75228800   -0.79859200
 H                  0.00043600   -0.31546100    1.05080100
 H                  0.00043900    1.06775300   -0.25219700
 Cl                 2.15389100   -0.00000100   -0.00000100
 Cl                -2.15390500   -0.00000100   -0.00000100


